/*--------------------------------*- C++ -*----------------------------------*\
  =========                 |
  \\      /  F ield         | OpenFOAM: The Open Source CFD Toolbox
   \\    /   O peration     | Website:  https://openfoam.org
    \\  /    A nd           | Version:  dev
     \\/     M anipulation  |
\*---------------------------------------------------------------------------*/
FoamFile
{
    format      ascii;
    class       polyBoundaryMesh;
    location    "constant/polyMesh";
    object      boundary;
}
// * * * * * * * * * * * * * * * * * * * * * * * * * * * * * * * * * * * * * //

3
(
    inlet
    {
        type            patch;
        nFaces          1508;
        startFace       1380125;
    }
    outlet
    {
        type            patch;
        nFaces          4804;
        startFace       1381633;
    }
    walls
    {
        type            wall;
        inGroups        List<word> 1(wall);
        nFaces          24730;
        startFace       1386437;
    }
)

// ************************************************************************* //
