/*--------------------------------*- C++ -*----------------------------------*\
  =========                 |
  \\      /  F ield         | OpenFOAM: The Open Source CFD Toolbox
   \\    /   O peration     | Website:  https://openfoam.org
    \\  /    A nd           | Version:  dev
     \\/     M anipulation  |
\*---------------------------------------------------------------------------*/
FoamFile
{
    format      ascii;
    class       polyBoundaryMesh;
    location    "constant/air/polyMesh";
    object      boundary;
}
// * * * * * * * * * * * * * * * * * * * * * * * * * * * * * * * * * * * * * //

5
(
    inlet
    {
        type            patch;
        nFaces          758;
        startFace       465580;
    }
    outlet
    {
        type            patch;
        nFaces          2712;
        startFace       466338;
    }
    walls
    {
        type            wall;
        inGroups        List<word> 1(wall);
        nFaces          16960;
        startFace       469050;
    }
    air_to_solid
    {
        type            mappedWall;
        inGroups        List<word> 
2
(
wall
mapped
)
;
        nFaces          44732;
        startFace       486010;
        neighbourRegion solid;
        neighbourPatch  solid_to_air;
        transformType   none;
    }
    air_to_water
    {
        type            mappedWall;
        inGroups        List<word> 
2
(
wall
mapped
)
;
        nFaces          1916;
        startFace       530742;
        neighbourRegion water;
        neighbourPatch  water_to_air;
        transformType   none;
    }
)

// ************************************************************************* //
