/*--------------------------------*- C++ -*----------------------------------*\
  =========                 |
  \\      /  F ield         | OpenFOAM: The Open Source CFD Toolbox
   \\    /   O peration     | Website:  https://openfoam.org
    \\  /    A nd           | Version:  dev
     \\/     M anipulation  |
\*---------------------------------------------------------------------------*/
FoamFile
{
    format      ascii;
    class       polyBoundaryMesh;
    location    "constant/air/polyMesh";
    object      boundary;
}
// * * * * * * * * * * * * * * * * * * * * * * * * * * * * * * * * * * * * * //

5
(
    inlet
    {
        type            patch;
        nFaces          1508;
        startFace       648207;
    }
    outlet
    {
        type            patch;
        nFaces          4804;
        startFace       649715;
    }
    walls
    {
        type            wall;
        inGroups        List<word> 1(wall);
        nFaces          24730;
        startFace       654519;
    }
    air_to_water
    {
        type            mappedWall;
        inGroups        List<word> 
2
(
wall
mapped
)
;
        nFaces          6328;
        startFace       679249;
        neighbourRegion water;
        neighbourPatch  water_to_air;
        transformType   none;
    }
    air_to_solid
    {
        type            mappedWall;
        inGroups        List<word> 
2
(
wall
mapped
)
;
        nFaces          56244;
        startFace       685577;
        neighbourRegion solid;
        neighbourPatch  solid_to_air;
        transformType   none;
    }
)

// ************************************************************************* //
