/*--------------------------------*- C++ -*----------------------------------*\
  =========                 |
  \\      /  F ield         | OpenFOAM: The Open Source CFD Toolbox
   \\    /   O peration     | Website:  https://openfoam.org
    \\  /    A nd           | Version:  dev
     \\/     M anipulation  |
\*---------------------------------------------------------------------------*/
FoamFile
{
    format      ascii;
    class       polyBoundaryMesh;
    location    "constant/water/polyMesh";
    object      boundary;
}
// * * * * * * * * * * * * * * * * * * * * * * * * * * * * * * * * * * * * * //

6
(
    water_to_air
    {
        type            mappedWall;
        inGroups        List<word> 
2
(
wall
mapped
)
;
        nFaces          315;
        startFace       24801;
        neighbourRegion air;
        neighbourPatch  air_to_water;
        transformType   none;
    }
    water_to_solid
    {
        type            mappedWall;
        inGroups        List<word> 
2
(
wall
mapped
)
;
        nFaces          2921;
        startFace       25116;
        neighbourRegion solid;
        neighbourPatch  solid_to_water;
        transformType   none;
    }
    procBoundary10to0
    {
        type            processor;
        inGroups        List<word> 1(processor);
        nFaces          402;
        startFace       28037;
        matchTolerance  0.0001;
        myProcNo        10;
        neighbProcNo    0;
    }
    procBoundary10to1
    {
        type            processor;
        inGroups        List<word> 1(processor);
        nFaces          23;
        startFace       28439;
        matchTolerance  0.0001;
        myProcNo        10;
        neighbProcNo    1;
    }
    procBoundary10to6
    {
        type            processor;
        inGroups        List<word> 1(processor);
        nFaces          137;
        startFace       28462;
        matchTolerance  0.0001;
        myProcNo        10;
        neighbProcNo    6;
    }
    procBoundary10to11
    {
        type            processor;
        inGroups        List<word> 1(processor);
        nFaces          264;
        startFace       28599;
        matchTolerance  0.0001;
        myProcNo        10;
        neighbProcNo    11;
    }
)

// ************************************************************************* //
