/*--------------------------------*- C++ -*----------------------------------*\
| =========                 |                                                 |
| \\      /  F ield         | OpenFOAM: The Open Source CFD Toolbox           |
|  \\    /   O peration     | Version:  v2012                                 |
|   \\  /    A nd           | Website:  www.openfoam.com                      |
|    \\/     M anipulation  |                                                 |
\*---------------------------------------------------------------------------*/
FoamFile
{
    version     2.0;
    format      ascii;
    class       volVectorField;
    location    "0/bottomWater";
    object      U;
}
// * * * * * * * * * * * * * * * * * * * * * * * * * * * * * * * * * * * * * //

dimensions      [ 0 1 -1 0 0 0 0 ];

internalField   uniform ( 0 0.001 0 );

boundaryField
{
    minX
    {
        type            fixedValue;
        value           uniform ( 0 0 0 );
    }
    maxX
    {
        type            fixedValue;
        value           uniform ( 0 0 0 );
    }
    minY
    {
        type            fixedValue;
        value           uniform ( 0 0.001 0 );
    }
    minZ
    {
        type            fixedValue;
        value           uniform ( 0 0 0 );
    }
    maxZ
    {
        type            fixedValue;
        value           uniform ( 0 0 0 );
    }
    bottomWater_to_rightSolid
    {
        type            fixedValue;
        value           uniform ( 0 0 0 );
    }
    bottomWater_to_leftSolid
    {
        type            fixedValue;
        value           uniform ( 0 0 0 );
    }
    bottomWater_to_heater
    {
        type            fixedValue;
        value           uniform ( 0 0 0 );
    }
    maxY
    {
        type            inletOutlet;
        inletValue      uniform ( 0 0 0 );
    }
}


// ************************************************************************* //
