/*--------------------------------*- C++ -*----------------------------------*\
  =========                 |
  \\      /  F ield         | OpenFOAM: The Open Source CFD Toolbox
   \\    /   O peration     | Website:  https://openfoam.org
    \\  /    A nd           | Version:  dev
     \\/     M anipulation  |
\*---------------------------------------------------------------------------*/
FoamFile
{
    format          ascii;
    class           volScalarField;
    object          T;
}
// * * * * * * * * * * * * * * * * * * * * * * * * * * * * * * * * * * * * * //

#include        "$FOAM_CASE/constant/initialConditions"

dimensions      [ 0 0 0 1 0 0 0 ];

internalField   uniform 298;

boundaryField
{
    solid_to_air
    {
        type            coupledTemperature;
        value           $internalField;
    }
    solid_to_water
    {
        type            coupledTemperature;
        value           $internalField;
    }
}


// ************************************************************************* //
