/*--------------------------------*- C++ -*----------------------------------*\
  =========                 |
  \\      /  F ield         | OpenFOAM: The Open Source CFD Toolbox
   \\    /   O peration     | Website:  https://openfoam.org
    \\  /    A nd           | Version:  dev
     \\/     M anipulation  |
\*---------------------------------------------------------------------------*/
FoamFile
{
    format      ascii;
    class       polyBoundaryMesh;
    location    "constant/air/polyMesh";
    object      boundary;
}
// * * * * * * * * * * * * * * * * * * * * * * * * * * * * * * * * * * * * * //

15
(
    inlet
    {
        type            patch;
        nFaces          0;
        startFace       53965;
    }
    outlet
    {
        type            patch;
        nFaces          0;
        startFace       53965;
    }
    walls
    {
        type            wall;
        inGroups        List<word> 1(wall);
        nFaces          176;
        startFace       53965;
    }
    air_to_water
    {
        type            mappedWall;
        inGroups        List<word> 
2
(
wall
mapped
)
;
        nFaces          1796;
        startFace       54141;
        neighbourRegion water;
        neighbourPatch  water_to_air;
        transformType   none;
    }
    air_to_solid
    {
        type            mappedWall;
        inGroups        List<word> 
2
(
wall
mapped
)
;
        nFaces          4983;
        startFace       55937;
        neighbourRegion solid;
        neighbourPatch  solid_to_air;
        transformType   none;
    }
    procBoundary7to0
    {
        type            processor;
        inGroups        List<word> 1(processor);
        nFaces          322;
        startFace       60920;
        matchTolerance  0.0001;
        myProcNo        7;
        neighbProcNo    0;
    }
    procBoundary7to1
    {
        type            processor;
        inGroups        List<word> 1(processor);
        nFaces          15;
        startFace       61242;
        matchTolerance  0.0001;
        myProcNo        7;
        neighbProcNo    1;
    }
    procBoundary7to2
    {
        type            processor;
        inGroups        List<word> 1(processor);
        nFaces          244;
        startFace       61257;
        matchTolerance  0.0001;
        myProcNo        7;
        neighbProcNo    2;
    }
    procBoundary7to3
    {
        type            processor;
        inGroups        List<word> 1(processor);
        nFaces          51;
        startFace       61501;
        matchTolerance  0.0001;
        myProcNo        7;
        neighbProcNo    3;
    }
    procBoundary7to5
    {
        type            processor;
        inGroups        List<word> 1(processor);
        nFaces          185;
        startFace       61552;
        matchTolerance  0.0001;
        myProcNo        7;
        neighbProcNo    5;
    }
    procBoundary7to6
    {
        type            processor;
        inGroups        List<word> 1(processor);
        nFaces          500;
        startFace       61737;
        matchTolerance  0.0001;
        myProcNo        7;
        neighbProcNo    6;
    }
    procBoundary7to8
    {
        type            processor;
        inGroups        List<word> 1(processor);
        nFaces          480;
        startFace       62237;
        matchTolerance  0.0001;
        myProcNo        7;
        neighbProcNo    8;
    }
    procBoundary7to9
    {
        type            processor;
        inGroups        List<word> 1(processor);
        nFaces          94;
        startFace       62717;
        matchTolerance  0.0001;
        myProcNo        7;
        neighbProcNo    9;
    }
    procBoundary7to10
    {
        type            processor;
        inGroups        List<word> 1(processor);
        nFaces          70;
        startFace       62811;
        matchTolerance  0.0001;
        myProcNo        7;
        neighbProcNo    10;
    }
    procBoundary7to11
    {
        type            processor;
        inGroups        List<word> 1(processor);
        nFaces          37;
        startFace       62881;
        matchTolerance  0.0001;
        myProcNo        7;
        neighbProcNo    11;
    }
)

// ************************************************************************* //
