/*--------------------------------*- C++ -*----------------------------------*\
  =========                 |
  \\      /  F ield         | OpenFOAM: The Open Source CFD Toolbox
   \\    /   O peration     | Website:  https://openfoam.org
    \\  /    A nd           | Version:  dev
     \\/     M anipulation  |
\*---------------------------------------------------------------------------*/
FoamFile
{
    format      ascii;
    class       polyBoundaryMesh;
    location    "constant/air/polyMesh";
    object      boundary;
}
// * * * * * * * * * * * * * * * * * * * * * * * * * * * * * * * * * * * * * //

5
(
    inlet
    {
        type            patch;
        nFaces          400;
        startFace       1800025;
    }
    outlet
    {
        type            patch;
        nFaces          400;
        startFace       1800425;
    }
    walls
    {
        type            wall;
        inGroups        List<word> 1(wall);
        nFaces          1108;
        startFace       1800825;
    }
    air_to_solid
    {
        type            mappedWall;
        inGroups        List<word> 
2
(
wall
mapped
)
;
        nFaces          53542;
        startFace       1801933;
        neighbourRegion solid;
        neighbourPatch  solid_to_air;
        transformType   none;
    }
    air_to_water
    {
        type            mappedWall;
        inGroups        List<word> 
2
(
wall
mapped
)
;
        nFaces          4344;
        startFace       1855475;
        neighbourRegion water;
        neighbourPatch  water_to_air;
        transformType   none;
    }
)

// ************************************************************************* //
