/*--------------------------------*- C++ -*----------------------------------*\
  =========                 |
  \\      /  F ield         | OpenFOAM: The Open Source CFD Toolbox
   \\    /   O peration     | Website:  https://openfoam.org
    \\  /    A nd           | Version:  dev
     \\/     M anipulation  |
\*---------------------------------------------------------------------------*/
FoamFile
{
    format      ascii;
    class       extendedFeatureEdgeMesh;
    location    "constant/extendedFeatureEdgeMesh";
    object      pot_round.extendedFeatureEdgeMesh;
}
// * * * * * * * * * * * * * * * * * * * * * * * * * * * * * * * * * * * * * //

// points

2724
(
(-33.555088 0 21.441114)
(24.577579 0 9.0846348)
(-24.577579 0 9.0846348)
(33.555088 0 21.441114)
(11.350385 -34.932892 46.272915)
(29.715694 21.589714 41.647358)
(29.715694 21.589714 46.272915)
(-11.350385 34.932892 46.272915)
(-29.715694 21.589714 41.647358)
(-29.715694 21.589714 46.272915)
(-29.715694 -21.589714 46.272915)
(-29.715694 -21.589714 41.647358)
(11.350385 34.932892 46.272915)
(29.715694 -21.589714 41.647358)
(29.715694 -21.589714 46.272915)
(-11.350385 -34.932892 46.272915)
(27.682224 5.884038 15.819169)
(-18.936838 -13.758418 10.384452)
(-27.682224 -5.884038 15.819169)
(-27.682224 -20.112312 29.107731)
(27.682224 20.112312 29.107731)
(31.957228 0 22.152529)
(-9.8753262 -30.393129 22.152529)
(27.682224 -20.112312 29.107731)
(9.8753262 -30.393129 22.152529)
(-27.682224 20.112312 29.107731)
(-27.682224 5.884038 15.819169)
(18.936838 21.03149 15.819169)
(18.936838 -13.758418 10.384452)
(-18.936838 13.758418 10.384452)
(9.8753262 30.393129 22.152529)
(18.936838 -21.03149 15.819169)
(-18.936838 -21.03149 15.819169)
(-9.8753262 30.393129 22.152529)
(18.936838 13.758418 10.384452)
(-18.936838 21.03149 15.819169)
(27.682224 -5.884038 15.819169)
(-31.957228 0 22.152529)
(8.7450972 35.43816 35.926922)
(3.8393946 36.529404 36.380802)
(8.6910877 35.498146 36.380802)
(8.7632093 35.418045 35.774715)
(8.9241657 35.333809 35.306591)
(8.9624949 35.313747 35.195114)
(9.2423496 35.204586 34.730263)
(9.2802353 35.189812 34.667332)
(3.7554951 35.731148 28.744078)
(9.4573746 35.131859 34.477367)
(-3.8393946 36.529404 36.380802)
(-3.7554951 35.731148 28.744078)
(-35.927967 -7.6367245 36.380802)
(-36.730618 0 36.380802)
(-35.142853 -7.4698439 28.744078)
(-29.066334 -21.117928 28.744078)
(-32.821831 -14.61322 28.744078)
(-30.654099 -13.648084 21.441114)
(35.927967 -7.6367245 36.380802)
(35.142853 -7.4698439 28.744078)
(36.730618 0 36.380802)
(30.654099 -13.648084 21.441114)
(24.040501 -17.466446 14.791088)
(27.146637 -12.086461 14.791088)
(16.44561 18.264702 9.0846348)
(12.28879 21.284809 9.0846348)
(14.857847 25.734547 14.791088)
(19.88368 14.44634 9.0846348)
(14.857847 10.794857 4.5711546)
(-32.821831 -6.9764948 21.441114)
(-29.715694 0 14.791088)
(-29.066334 21.117928 28.744078)
(-29.715694 21.589714 36.380802)
(-24.040501 26.699682 28.744078)
(19.88368 -22.083065 14.791088)
(16.44561 -18.264702 9.0846348)
(19.88368 -14.44634 9.0846348)
(29.715694 21.589714 36.380802)
(24.040501 26.699682 28.744078)
(24.577579 27.296169 36.380802)
(35.927967 0 28.744078)
(10.369093 4.6166172 1.4479094)
(9.1826544 6.6715889 1.4479094)
(9.1826544 28.261305 14.791088)
(11.102352 -34.169525 28.744078)
(10.369093 -31.912786 21.441114)
(17.963982 -31.114532 28.744078)
(32.821831 -6.9764948 21.441114)
(18.365309 0 4.5711546)
(24.040501 5.1099663 9.0846348)
(14.857847 -10.794857 4.5711546)
(11.350385 0 1.4479094)
(3.7554951 0.79825497 -0.14860061)
(11.102352 2.3598776 1.4479094)
(30.654099 13.648084 21.441114)
(24.040501 17.466446 14.791088)
(27.146637 19.723186 21.441114)
(-17.963982 -3.8183622 4.5711546)
(-24.040501 -5.1099663 9.0846348)
(-18.365309 0 4.5711546)
(-0.40132523 3.8183622 -0.14860061)
(1.1864376 11.288206 1.4479094)
(0.40132523 3.8183622 -0.14860061)
(-1.1864376 11.288206 1.4479094)
(9.1826544 15.904824 4.5711546)
(5.6751919 17.466446 4.5711546)
(7.5948896 23.374668 9.0846348)
(-35.142853 7.4698439 28.744078)
(-35.927967 7.6367245 36.380802)
(-14.857847 10.794857 4.5711546)
(-16.44561 18.264702 9.0846348)
(-12.28879 13.648084 4.5711546)
(3.1061354 29.552908 14.791088)
(-3.5074615 33.371269 21.441114)
(3.5074615 33.371269 21.441114)
(-3.1061354 29.552908 14.791088)
(35.927967 7.6367245 36.380802)
(32.821831 14.61322 28.744078)
(33.555088 14.939688 36.380802)
(29.066334 -6.1782398 14.791088)
(22.452736 24.936291 21.441114)
(2.5690565 24.442942 9.0846348)
(-19.88368 -14.44634 9.0846348)
(-24.040501 -17.466446 14.791088)
(-22.452736 -9.9966021 9.0846348)
(3.8393946 -36.529404 36.380802)
(8.7105789 -35.476498 36.21701)
(8.6910877 -35.498146 36.380802)
(8.7632093 -35.418045 35.774715)
(8.8072548 -35.394993 35.64661)
(8.9624949 -35.313747 35.195114)
(9.0137863 -35.293743 35.109917)
(9.2802353 -35.189812 34.667332)
(3.7554951 -35.731148 28.744078)
(9.3210115 -35.176468 34.623604)
(9.4573746 -35.131859 34.477367)
(9.9460993 -34.981541 34.042843)
(9.7182617 -35.047123 34.203365)
(9.7025442 -35.051647 34.214439)
(10.179132 -34.913357 33.868324)
(10.195287 -34.90863 33.856228)
(10.68576 -34.780403 33.631855)
(10.737137 -34.766968 33.608353)
(11.232649 -34.650112 33.500416)
(11.256663 -34.644447 33.495186)
(17.963982 3.8183622 4.5711546)
(29.066334 21.117928 28.744078)
(-32.821831 6.9764948 21.441114)
(-27.146637 -19.723186 21.441114)
(-24.040501 17.466446 14.791088)
(-30.654099 13.648084 21.441114)
(-27.146637 19.723186 21.441114)
(-24.040501 5.1099663 9.0846348)
(-17.963982 3.8183622 4.5711546)
(-16.777544 7.4698439 4.5711546)
(-22.452736 9.9966021 9.0846348)
(-10.369093 4.6166172 1.4479094)
(-9.1826544 6.6715889 1.4479094)
(14.857847 -25.734547 14.791088)
(9.1826544 -28.261305 14.791088)
(12.28879 -21.284809 9.0846348)
(29.715694 0 14.791088)
(-22.452736 24.936291 21.441114)
(16.777544 29.059559 21.441114)
(9.686058 35.057041 34.232121)
(9.7025442 35.051647 34.214439)
(11.102352 34.169525 28.744078)
(9.9460993 34.981541 34.042843)
(10.195287 34.90863 33.856228)
(10.793263 34.753735 33.596127)
(11.256663 34.644447 33.495186)
(10.737137 34.766968 33.608353)
(10.21414 34.903702 33.847603)
(-17.963982 31.114532 28.744078)
(-18.365309 31.809649 36.380802)
(19.88368 22.083065 14.791088)
(32.821831 6.9764948 21.441114)
(35.142853 7.4698439 28.744078)
(-8.7450972 -35.43816 35.926922)
(-3.8393946 -36.529404 36.380802)
(-8.6910877 -35.498146 36.380802)
(-8.7632093 -35.418045 35.774715)
(-8.9241657 -35.333809 35.306591)
(-8.9624949 -35.313747 35.195114)
(-9.2423496 -35.204586 34.730263)
(-9.2802353 -35.189812 34.667332)
(-3.7554951 -35.731148 28.744078)
(-9.4573746 -35.131859 34.477367)
(-32.821831 14.61322 28.744078)
(-35.927967 0 28.744078)
(-2.5690565 -24.442942 9.0846348)
(3.1061354 -29.552908 14.791088)
(-3.1061354 -29.552908 14.791088)
(2.5690565 -24.442942 9.0846348)
(22.452736 -24.936291 21.441114)
(12.28879 -13.648084 4.5711546)
(27.146637 -19.723186 21.441114)
(24.040501 -26.699682 28.744078)
(16.777544 -29.059559 21.441114)
(29.066334 -21.117928 28.744078)
(-12.28879 -13.648084 4.5711546)
(-14.857847 -10.794857 4.5711546)
(-9.1826544 -6.6715889 1.4479094)
(-29.715694 -21.589714 36.380802)
(-11.102352 -34.169525 28.744078)
(-18.365309 -31.809649 36.380802)
(-17.963982 -31.114532 28.744078)
(-24.577579 27.296169 36.380802)
(1.9196968 18.264702 4.5711546)
(-19.88368 14.44634 9.0846348)
(-29.066334 6.1782398 14.791088)
(-27.146637 12.086461 14.791088)
(-11.102352 2.3598776 1.4479094)
(-5.6751919 -9.8297215 1.4479094)
(-7.5948896 -8.4349794 1.4479094)
(-1.9196968 -3.3250132 -0.14860061)
(-10.369093 31.912786 21.441114)
(-7.5948896 23.374668 9.0846348)
(-12.28879 21.284809 9.0846348)
(-9.1826544 28.261305 14.791088)
(-9.1826544 15.904824 4.5711546)
(10.369093 31.912786 21.441114)
(24.040501 -5.1099663 9.0846348)
(16.777544 7.4698439 4.5711546)
(3.5074615 -10.794857 1.4479094)
(1.1864376 -11.288206 1.4479094)
(1.1864376 -3.6514816 -0.14860061)
(29.066334 6.1782398 14.791088)
(27.146637 12.086461 14.791088)
(17.963982 31.114532 28.744078)
(18.365309 31.809649 36.380802)
(-16.777544 -7.4698439 4.5711546)
(-10.369093 -4.6166172 1.4479094)
(22.452736 -9.9966021 9.0846348)
(3.5074615 -33.371269 21.441114)
(-27.146637 -12.086461 14.791088)
(-29.066334 -6.1782398 14.791088)
(-33.555088 -14.939688 36.380802)
(-16.777544 29.059559 21.441114)
(1.1864376 3.6514816 -0.14860061)
(-2.5690565 24.442942 9.0846348)
(-7.5948896 8.4349794 1.4479094)
(-11.102352 34.169525 28.744078)
(-14.857847 25.734547 14.791088)
(-5.6751919 17.466446 4.5711546)
(-1.9196968 18.264702 4.5711546)
(14.390959 33.542721 36.062477)
(14.426578 33.563286 36.380802)
(14.35876 33.524128 35.774715)
(14.261774 33.532833 35.473408)
(14.172196 33.540874 35.195114)
(14.014997 33.578918 34.915913)
(13.87504 33.612789 34.667332)
(13.656363 33.681442 34.416454)
(13.48028 33.736729 34.214439)
(13.197093 33.838379 34.000931)
(12.049955 34.293522 33.515026)
(12.470469 34.116974 33.608353)
(11.899551 34.356667 33.481644)
(11.317367 34.615871 33.481644)
(12.654081 34.044964 33.69347)
(13.005168 33.907272 33.856228)
(-11.317367 34.615871 33.481644)
(-11.899551 34.356667 33.481644)
(-11.256663 34.644447 33.495186)
(-14.39428 33.544636 36.092163)
(-14.426578 33.563286 36.380802)
(-14.35876 33.524128 35.774715)
(-14.267969 33.53228 35.492653)
(-14.172196 33.540874 35.195114)
(-14.028855 33.575565 34.940525)
(-13.87504 33.612789 34.667332)
(-13.692117 33.670219 34.457474)
(-13.48028 33.736729 34.214439)
(-13.276196 33.809986 34.06057)
(-13.005168 33.907272 33.856228)
(-12.289492 34.192955 33.568188)
(-12.801574 33.987122 33.761845)
(-12.470469 34.116974 33.608353)
(-9.9460993 34.981541 34.042843)
(-9.7182617 35.047123 34.203365)
(-9.7025442 35.051647 34.214439)
(-10.179132 34.913357 33.868324)
(-9.4573746 35.131859 34.477367)
(-10.195287 34.90863 33.856228)
(-10.68576 34.780403 33.631855)
(-10.737137 34.766968 33.608353)
(-11.232649 34.650112 33.500416)
(33.555088 -14.939688 36.380802)
(29.715694 -21.589714 36.380802)
(32.821831 -14.61322 28.744078)
(16.777544 -7.4698439 4.5711546)
(17.963982 -3.8183622 4.5711546)
(-3.5074615 -1.5616226 -0.14860061)
(-7.5948896 -23.374668 9.0846348)
(-12.28879 -21.284809 9.0846348)
(-9.1826544 -15.904824 4.5711546)
(-1.9196968 -18.264702 4.5711546)
(-5.6751919 -17.466446 4.5711546)
(-1.1864376 -11.288206 1.4479094)
(10.369093 -4.6166172 1.4479094)
(-24.040501 -26.699682 28.744078)
(-3.5074615 -33.371269 21.441114)
(-9.1826544 -28.261305 14.791088)
(-10.369093 -31.912786 21.441114)
(24.577579 -27.296169 36.380802)
(18.365309 -31.809649 36.380802)
(-19.88368 22.083065 14.791088)
(-3.5074615 1.5616226 -0.14860061)
(-3.1061354 2.2567396 -0.14860061)
(-3.7554951 0.79825497 -0.14860061)
(3.5074615 -1.5616226 -0.14860061)
(3.7554951 -0.79825497 -0.14860061)
(-2.5690565 2.8532257 -0.14860061)
(22.452736 9.9966021 9.0846348)
(3.1061354 2.2567396 -0.14860061)
(7.5948896 8.4349794 1.4479094)
(5.6751919 9.8297215 1.4479094)
(3.5074615 10.794857 1.4479094)
(12.28879 13.648084 4.5711546)
(1.9196968 3.3250132 -0.14860061)
(11.317367 -34.615871 33.481644)
(11.899551 -34.356667 33.481644)
(14.39428 -33.544636 36.092163)
(14.426578 -33.563286 36.380802)
(14.35876 -33.524128 35.774715)
(14.267969 -33.53228 35.492653)
(14.172196 -33.540874 35.195114)
(14.028855 -33.575565 34.940525)
(13.87504 -33.612789 34.667332)
(13.692117 -33.670219 34.457474)
(13.48028 -33.736729 34.214439)
(13.276196 -33.809986 34.06057)
(13.005168 -33.907272 33.856228)
(12.289492 -34.192955 33.568188)
(12.801574 -33.987122 33.761845)
(12.470469 -34.116974 33.608353)
(7.5948896 -23.374668 9.0846348)
(1.9196968 -18.264702 4.5711546)
(5.6751919 -17.466446 4.5711546)
(5.6751919 -9.8297215 1.4479094)
(9.1826544 -15.904824 4.5711546)
(-16.44561 -18.264702 9.0846348)
(-19.88368 -22.083065 14.791088)
(3.5074615 1.5616226 -0.14860061)
(-11.102352 -2.3598776 1.4479094)
(-11.350385 0 1.4479094)
(-14.857847 -25.734547 14.791088)
(-16.777544 -29.059559 21.441114)
(-22.452736 -24.936291 21.441114)
(-33.555088 14.939688 36.380802)
(-5.6751919 9.8297215 1.4479094)
(11.102352 -2.3598776 1.4479094)
(-2.5690565 -2.8532257 -0.14860061)
(-3.1061354 -2.2567396 -0.14860061)
(-0.40132523 -3.8183622 -0.14860061)
(0.40132523 -3.8183622 -0.14860061)
(-8.7105789 35.476498 36.21701)
(-8.6910877 35.498146 36.380802)
(-8.7632093 35.418045 35.774715)
(-8.8072548 35.394993 35.64661)
(-8.9624949 35.313747 35.195114)
(-9.0137863 35.293743 35.109917)
(-9.2802353 35.189812 34.667332)
(-9.3210115 35.176468 34.623604)
(-1.9196968 3.3250132 -0.14860061)
(-1.1864376 3.6514816 -0.14860061)
(7.5948896 -8.4349794 1.4479094)
(9.1826544 -6.6715889 1.4479094)
(-3.5074615 -10.794857 1.4479094)
(-9.686058 -35.057041 34.232121)
(-9.7025442 -35.051647 34.214439)
(-9.9460993 -34.981541 34.042843)
(-10.195287 -34.90863 33.856228)
(-10.793263 -34.753735 33.596127)
(-11.256663 -34.644447 33.495186)
(-10.737137 -34.766968 33.608353)
(-10.21414 -34.903702 33.847603)
(-14.390959 -33.542721 36.062477)
(-14.426578 -33.563286 36.380802)
(-14.35876 -33.524128 35.774715)
(-14.261774 -33.532833 35.473408)
(-14.172196 -33.540874 35.195114)
(-14.014997 -33.578918 34.915913)
(-13.87504 -33.612789 34.667332)
(-13.656363 -33.681442 34.416454)
(-13.48028 -33.736729 34.214439)
(-13.197093 -33.838379 34.000931)
(-12.049955 -34.293522 33.515026)
(-12.470469 -34.116974 33.608353)
(-11.899551 -34.356667 33.481644)
(-11.317367 -34.615871 33.481644)
(-12.654081 -34.044964 33.69347)
(-13.005168 -33.907272 33.856228)
(-24.577579 -27.296169 36.380802)
(2.5690565 2.8532257 -0.14860061)
(-1.1864376 -3.6514816 -0.14860061)
(-3.5074615 10.794857 1.4479094)
(1.9196968 -3.3250132 -0.14860061)
(3.8393946 0 -0.14860061)
(-3.7554951 -0.79825497 -0.14860061)
(2.5690565 -2.8532257 -0.14860061)
(3.1061354 -2.2567396 -0.14860061)
(-3.8393946 0 -0.14860061)
(3.8393953 -36.529404 46.272915)
(3.8393946 -36.529404 46.875263)
(3.8393946 -36.529404 46.272915)
(8.304719 -35.580269 46.272915)
(11.350385 -34.932892 46.875263)
(3.8393953 -36.529404 41.647358)
(3.8393946 -36.529404 41.647358)
(6.8850708 -35.882027 41.647358)
(10.129273 -35.192448 38.867954)
(9.6776552 -35.288445 38.547165)
(11.350385 -34.932892 41.647358)
(11.121519 -34.981541 39.230164)
(11.350385 -34.932892 39.279896)
(10.751421 -35.060207 39.153255)
(10.729025 -35.064968 39.143505)
(10.181959 -35.181252 38.905376)
(9.6082869 -35.303188 38.471844)
(9.2605495 -35.377102 38.094273)
(9.1922245 -35.391624 37.978573)
(8.9488735 -35.443352 37.56649)
(8.8991928 -35.453911 37.417007)
(8.7562466 -35.484295 36.986893)
(8.7380915 -35.488155 36.81802)
(-36.405144 -3.0966709 41.647358)
(-36.730618 0 41.647358)
(-35.927967 -7.6367245 41.647358)
(-36.253441 -4.5400457 46.272915)
(-36.730618 0 46.875263)
(-36.730618 0 46.272915)
(-35.927967 -7.6367245 46.875263)
(-35.927967 -7.6367245 46.272915)
(24.577581 27.296167 41.647358)
(24.577579 27.296169 41.647358)
(27.632196 23.903673 41.647358)
(29.715694 21.589716 41.647358)
(24.577579 27.296169 46.875263)
(24.577581 27.296167 46.272915)
(24.577579 27.296169 46.272915)
(26.661079 24.982208 46.272915)
(29.715694 21.589714 46.875263)
(29.715694 21.589716 46.272915)
(-3.8393953 36.529404 46.272915)
(-3.8393946 36.529404 46.875263)
(-3.8393946 36.529404 46.272915)
(-8.304719 35.580269 46.272915)
(-11.350385 34.932892 46.875263)
(-3.8393953 36.529404 41.647358)
(-3.8393946 36.529404 41.647358)
(-6.8850708 35.882027 41.647358)
(-10.129273 35.192448 38.867954)
(-9.6776552 35.288445 38.547165)
(-11.350385 34.932892 41.647358)
(-11.121519 34.981541 39.230164)
(-11.350385 34.932892 39.279896)
(-10.751421 35.060207 39.153255)
(-10.729025 35.064968 39.143505)
(-10.181959 35.181252 38.905376)
(-9.6082869 35.303188 38.471844)
(-9.2605495 35.377102 38.094273)
(-9.1922245 35.391624 37.978573)
(-8.9488735 35.443352 37.56649)
(-8.8991928 35.453911 37.417007)
(-8.7562466 35.484295 36.986893)
(-8.7380915 35.488155 36.81802)
(36.730618 0 46.875263)
(36.405144 -3.0966709 46.272915)
(36.730618 0 46.272915)
(35.927967 -7.6367245 46.875263)
(35.927967 -7.6367245 46.272915)
(36.253441 -4.5400457 41.647358)
(36.730618 0 41.647358)
(35.927967 -7.6367245 41.647358)
(31.272564 18.893137 46.272915)
(33.555088 14.939688 46.875263)
(33.555088 14.939688 46.272915)
(31.998211 17.63628 41.647358)
(33.555088 14.939688 41.647358)
(3.8393946 36.529404 46.272915)
(3.8393946 36.529404 46.875263)
(3.8393946 36.529404 41.647358)
(-3.8393946 -36.529404 46.272915)
(-3.8393946 -36.529404 46.875263)
(-3.8393946 -36.529404 41.647358)
(-24.577581 27.296167 41.647358)
(-24.577579 27.296169 41.647358)
(-26.661079 24.982208 41.647358)
(-29.715694 21.589716 41.647358)
(-24.577581 27.296167 46.272915)
(-24.577579 27.296169 46.875263)
(-24.577579 27.296169 46.272915)
(-27.632196 23.903673 46.272915)
(-29.715694 21.589714 46.875263)
(-29.715694 21.589716 46.272915)
(-31.272564 18.893137 41.647358)
(-33.555088 14.939688 41.647358)
(-31.998211 17.63628 46.272915)
(-33.555088 14.939688 46.875263)
(-33.555088 14.939688 46.272915)
(35.927967 7.6367245 46.875263)
(36.253441 4.5400457 46.272915)
(35.927967 7.6367245 46.272915)
(36.405144 3.0966709 41.647358)
(35.927967 7.6367245 41.647358)
(-36.253441 4.5400457 41.647358)
(-35.927967 7.6367245 41.647358)
(-36.405144 3.0966709 46.272915)
(-35.927967 7.6367245 46.875263)
(-35.927967 7.6367245 46.272915)
(34.965767 10.598071 41.647358)
(34.517288 11.978346 46.272915)
(33.555088 14.939688 46.272919)
(-22.058514 29.126377 46.272915)
(-18.365309 31.809649 46.875263)
(-18.365309 31.809649 46.272915)
(-20.884378 29.979437 41.647358)
(-18.365309 31.809649 41.647358)
(-29.715694 -21.589716 46.272915)
(-29.715694 -21.589714 46.875263)
(-26.661079 -24.982208 46.272915)
(-24.577579 -27.296169 46.875263)
(-24.577581 -27.296167 46.272915)
(-24.577579 -27.296169 46.272915)
(-29.715694 -21.589716 41.647358)
(-27.632196 -23.903673 41.647358)
(-24.577581 -27.296167 41.647358)
(-24.577579 -27.296169 41.647358)
(14.194913 33.666428 46.272915)
(18.365309 31.809649 46.875263)
(18.365309 31.809649 46.272915)
(11.350385 34.932892 46.875263)
(11.350386 34.932892 46.272915)
(15.520776 33.076115 41.647358)
(18.365309 31.809649 41.647358)
(12.885113 34.249588 38.97485)
(13.034171 34.183224 38.905376)
(12.50232 34.420021 39.153255)
(11.350673 34.932766 39.279961)
(11.350386 34.932892 41.647358)
(11.932858 34.673561 39.279961)
(12.385671 34.471954 39.179211)
(13.343521 34.04549 38.670105)
(13.505168 33.973522 38.547165)
(13.741481 33.868309 38.27243)
(13.894726 33.800079 38.094273)
(14.060455 33.726292 37.793789)
(14.185818 33.670479 37.56649)
(14.283883 33.626816 37.250553)
(14.365723 33.590378 36.986893)
(14.398228 33.575909 36.663162)
(11.350385 34.932892 41.647358)
(11.350385 34.932892 39.279896)
(20.884378 -29.979437 41.647358)
(18.365309 -31.809649 41.647358)
(24.577579 -27.296169 41.647358)
(22.058514 -29.126377 46.272915)
(18.365309 -31.809649 46.875263)
(18.365309 -31.809649 46.272915)
(24.577579 -27.296169 46.875263)
(24.577579 -27.296169 46.272915)
(11.350386 -34.932892 46.272915)
(15.520776 -33.076115 46.272915)
(11.350673 -34.932766 39.279961)
(11.350386 -34.932892 41.647358)
(12.50232 -34.420021 39.153255)
(14.194913 -33.666428 41.647358)
(11.932858 -34.673561 39.279961)
(12.007233 -34.640446 39.263412)
(12.622229 -34.366631 39.09737)
(13.034171 -34.183224 38.905376)
(13.177673 -34.119331 38.796238)
(13.505168 -33.973522 38.547165)
(13.648417 -33.909744 38.380627)
(13.894726 -33.800079 38.094273)
(14.015463 -33.746326 37.875362)
(14.185818 -33.670479 37.56649)
(14.266124 -33.634724 37.30777)
(14.365723 -33.590378 36.986893)
(14.393911 -33.577827 36.70615)
(22.058514 29.126377 41.647358)
(20.884378 29.979437 46.272915)
(31.272564 -18.893137 41.647358)
(33.555088 -14.939688 41.647358)
(33.555088 -14.939688 46.875263)
(31.998211 -17.63628 46.272915)
(33.555088 -14.939688 46.272915)
(29.715694 -21.589714 46.875263)
(29.715694 -21.589716 41.647358)
(26.661079 -24.982208 41.647358)
(24.577581 -27.296167 41.647358)
(29.715694 -21.589716 46.272915)
(27.632196 -23.903673 46.272915)
(24.577581 -27.296167 46.272915)
(6.8850708 35.882027 46.272915)
(3.8393953 36.529404 46.272915)
(10.751421 35.060207 39.153255)
(8.304719 35.580269 41.647358)
(9.6776552 35.288445 38.547165)
(9.7471066 35.273682 38.596497)
(11.338651 34.935387 39.277348)
(11.121519 34.981541 39.230164)
(10.770679 35.056114 39.157257)
(10.230187 35.170998 38.926373)
(10.181959 35.181252 38.905376)
(9.3388386 35.360462 38.179279)
(9.2605495 35.377102 38.094273)
(9.0208311 35.428055 37.688343)
(8.9488735 35.443352 37.56649)
(3.8393953 36.529404 41.647358)
(8.8069067 35.473526 37.139328)
(8.7562466 35.484295 36.986893)
(8.7093287 35.494267 36.550476)
(-14.194913 -33.666428 46.272915)
(-18.365309 -31.809649 46.875263)
(-18.365309 -31.809649 46.272915)
(-11.350385 -34.932892 46.875263)
(-11.350386 -34.932892 46.272915)
(-15.520776 -33.076115 41.647358)
(-18.365309 -31.809649 41.647358)
(-12.885113 -34.249588 38.97485)
(-13.034171 -34.183224 38.905376)
(-12.50232 -34.420021 39.153255)
(-11.350673 -34.932766 39.279961)
(-11.350386 -34.932892 41.647358)
(-11.932858 -34.673561 39.279961)
(-12.385671 -34.471954 39.179211)
(-13.343521 -34.04549 38.670105)
(-13.505168 -33.973522 38.547165)
(-13.741481 -33.868309 38.27243)
(-13.894726 -33.800079 38.094273)
(-14.060455 -33.726292 37.793789)
(-14.185818 -33.670479 37.56649)
(-14.283883 -33.626816 37.250553)
(-14.365723 -33.590378 36.986893)
(-14.398228 -33.575909 36.663162)
(-11.350385 -34.932892 41.647358)
(-11.350385 -34.932892 39.279896)
(-11.350386 34.932892 46.272915)
(-15.520776 33.076115 46.272915)
(-11.350673 34.932766 39.279961)
(-11.350386 34.932892 41.647358)
(-12.50232 34.420021 39.153255)
(-14.194913 33.666428 41.647358)
(-11.932858 34.673561 39.279961)
(-12.007233 34.640446 39.263412)
(-12.622229 34.366631 39.09737)
(-13.034171 34.183224 38.905376)
(-13.177673 34.119331 38.796238)
(-13.505168 33.973522 38.547165)
(-13.648417 33.909744 38.380627)
(-13.894726 33.800079 38.094273)
(-14.015463 33.746326 37.875362)
(-14.185818 33.670479 37.56649)
(-14.266124 33.634724 37.30777)
(-14.365723 33.590378 36.986893)
(-14.393911 33.577827 36.70615)
(-34.965767 -10.598071 41.647358)
(-33.555088 -14.939688 41.647358)
(-34.517288 -11.978346 46.272915)
(-33.555088 -14.939688 46.875263)
(-33.555088 -14.939688 46.272919)
(-33.555088 -14.939688 46.272915)
(34.517288 -11.978346 41.647358)
(34.965767 -10.598071 46.272915)
(33.555088 -14.939688 46.272919)
(-31.272564 -18.893137 46.272915)
(-31.998211 -17.63628 41.647358)
(-22.058514 -29.126377 41.647358)
(-20.884378 -29.979437 46.272915)
(-6.8850708 -35.882027 46.272915)
(-3.8393953 -36.529404 46.272915)
(-10.751421 -35.060207 39.153255)
(-8.304719 -35.580269 41.647358)
(-9.6776552 -35.288445 38.547165)
(-9.7471066 -35.273682 38.596497)
(-11.338651 -34.935387 39.277348)
(-11.121519 -34.981541 39.230164)
(-10.770679 -35.056114 39.157257)
(-10.230187 -35.170998 38.926373)
(-10.181959 -35.181252 38.905376)
(-9.3388386 -35.360462 38.179279)
(-9.2605495 -35.377102 38.094273)
(-9.0208311 -35.428055 37.688343)
(-8.9488735 -35.443352 37.56649)
(-3.8393953 -36.529404 41.647358)
(-8.8069067 -35.473526 37.139328)
(-8.7562466 -35.484295 36.986893)
(-8.7093287 -35.494267 36.550476)
(-34.517288 11.978346 41.647358)
(-34.965767 10.598071 46.272915)
(-33.555088 14.939688 46.272919)
(34.981541 0 46.875263)
(34.21711 7.2730713 46.875263)
(31.957228 14.228274 46.875263)
(28.300661 20.561634 46.875263)
(23.407219 25.996351 46.875263)
(17.49077 30.294903 46.875263)
(10.809891 33.269424 46.875263)
(3.6565666 34.789909 46.875263)
(-3.6565666 34.789909 46.875263)
(-10.809891 33.269424 46.875263)
(-17.49077 30.294903 46.875263)
(-23.407219 25.996351 46.875263)
(-28.300661 20.561634 46.875263)
(-31.957228 14.228274 46.875263)
(-34.21711 7.2730713 46.875263)
(-34.981541 0 46.875263)
(34.21711 -7.2730713 46.875263)
(31.957228 -14.228274 46.875263)
(28.300661 -20.561634 46.875263)
(23.407219 -25.996351 46.875263)
(17.49077 -30.294903 46.875263)
(10.809891 -33.269424 46.875263)
(3.6565666 -34.789909 46.875263)
(-3.6565666 -34.789909 46.875263)
(-10.809891 -33.269424 46.875263)
(-17.49077 -30.294903 46.875263)
(-23.407219 -25.996351 46.875263)
(-28.300661 -20.561634 46.875263)
(-31.957228 -14.228274 46.875263)
(-34.21711 -7.2730713 46.875263)
(-8.7453852 6.3538942 3.1113806)
(-11.703609 12.998176 6.0859003)
(-14.150331 10.280817 6.0859003)
(-28.21563 -20.499855 37.380802)
(-28.300661 -20.561634 36.380802)
(-28.707397 -19.648088 37.380802)
(33.469383 7.1141367 29.107731)
(34.21711 7.2730713 36.380802)
(31.258884 13.917353 29.107731)
(31.957228 14.228274 36.380802)
(28.300661 20.561634 36.380802)
(28.300661 0 15.819169)
(31.258884 6.6442804 22.152529)
(23.407219 25.996351 36.380802)
(23.336891 25.918243 37.380802)
(22.541195 26.496351 37.380802)
(31.957228 -14.228274 36.380802)
(34.21711 -7.2730713 36.380802)
(31.258884 -13.917353 29.107731)
(-27.557516 -21.230764 37.380802)
(-15.978614 7.1141367 6.0859003)
(-21.38356 9.5205736 10.384452)
(28.21563 -20.499855 37.380802)
(28.300661 -20.561634 36.380802)
(27.557516 -21.230764 37.380802)
(23.336891 -25.918243 37.380802)
(23.407219 -25.996351 36.380802)
(22.541195 -26.496351 37.380802)
(-10.573668 -32.542404 29.107731)
(-15.978614 -27.67577 22.152529)
(-17.108555 -29.632887 29.107731)
(3.6565666 -34.789909 36.380802)
(-3.6455801 -34.685379 37.380802)
(3.6455801 -34.685379 37.380802)
(-3.6565666 -34.789909 36.380802)
(-15.662487 -17.394955 10.384452)
(-22.895716 -16.634712 15.819169)
(3.5766611 -34.029663 29.107731)
(-3.5766611 -34.029663 29.107731)
(-17.108555 29.632887 29.107731)
(-17.49077 30.294903 36.380802)
(-23.407219 25.996351 36.380802)
(14.150331 -24.50909 15.819169)
(15.662487 -17.394955 10.384452)
(11.703609 -20.271248 10.384452)
(-22.895716 25.428268 29.107731)
(-22.895716 -4.8666344 10.384452)
(-28.300661 0 15.819169)
(2.9582243 -28.145626 15.819169)
(-3.3404398 -31.782162 22.152529)
(3.3404398 -31.782162 22.152529)
(-2.9582243 -28.145626 15.819169)
(1.8282833 17.394955 6.0859003)
(-1.129941 10.750672 3.1113806)
(1.129941 10.750672 3.1113806)
(-1.8282833 17.394955 6.0859003)
(10.809891 -33.269424 36.380802)
(10.573668 -32.542404 29.107731)
(14.150331 10.280817 6.0859003)
(11.703609 12.998176 6.0859003)
(8.7453852 6.3538942 3.1113806)
(-22.895716 -25.428268 29.107731)
(-25.853939 -18.783987 22.152529)
(25.853939 -18.783987 22.152529)
(29.19438 -12.998176 22.152529)
(22.895716 -16.634712 15.819169)
(-34.981541 0 36.380802)
(-34.21711 6.2730713 37.380802)
(-34.876438 0 37.380802)
(-34.21711 7.2730713 36.380802)
(31.258884 -6.6442804 22.152529)
(14.150331 24.50909 15.819169)
(15.978614 27.67577 22.152529)
(8.7453852 26.915527 15.819169)
(-2.4467201 23.278992 10.384452)
(-5.4049454 16.634712 6.0859003)
(-8.7453852 -26.915527 15.819169)
(-2.4467201 -23.278992 10.384452)
(-8.7453852 -6.3538942 3.1113806)
(-9.8753262 -4.3967781 3.1113806)
(-15.978614 -7.1141367 6.0859003)
(22.895716 -25.428268 29.107731)
(11.703609 -12.998176 6.0859003)
(15.978614 -27.67577 22.152529)
(8.7453852 -26.915527 15.819169)
(4.6076231 -34.480892 37.380802)
(1.8282833 -17.394955 6.0859003)
(3.3404398 -10.280817 3.1113806)
(1.129941 -10.750672 3.1113806)
(17.49077 -30.294903 36.380802)
(11.675916 -32.769424 37.380802)
(17.438219 -30.20388 37.380802)
(-34.114304 7.2512188 37.380802)
(-17.49077 -30.294903 36.380802)
(-23.407219 -25.996351 36.380802)
(34.114304 7.2512188 37.380802)
(33.810375 8.1866169 37.380802)
(7.2332287 8.0333138 3.1113806)
(2.4467201 2.7173586 1.5908947)
(15.978614 -7.1141367 6.0859003)
(17.108555 -3.6365356 6.0859003)
(10.573668 -2.2475023 3.1113806)
(5.4049454 16.634712 6.0859003)
(2.4467201 23.278992 10.384452)
(-7.2332287 22.261589 10.384452)
(-25.853939 18.783987 22.152529)
(-31.258884 13.917353 29.107731)
(2.9582243 28.145626 15.819169)
(-10.573668 -2.2475023 3.1113806)
(-3.6565666 0 1.5908947)
(-10.809891 0 3.1113806)
(-22.895716 4.8666344 10.384452)
(-25.853939 11.510916 15.819169)
(-21.38356 -9.5205736 10.384452)
(-27.557516 21.230764 37.380802)
(-28.21563 20.499855 37.380802)
(-28.300661 20.561634 36.380802)
(-23.336891 25.918243 37.380802)
(-31.957228 14.228274 36.380802)
(34.21711 0 29.107731)
(33.469383 -7.1141367 29.107731)
(34.981541 0 36.380802)
(7.2332287 -22.261589 10.384452)
(2.4467201 -23.278992 10.384452)
(17.108555 -29.632887 29.107731)
(25.853939 -11.510916 15.819169)
(-7.2332287 -22.261589 10.384452)
(-5.4049454 -16.634712 6.0859003)
(-8.7453852 -15.147451 6.0859003)
(-14.150331 -10.280817 6.0859003)
(-10.809891 -33.269424 36.380802)
(-25.853939 -11.510916 15.819169)
(-29.19438 -12.998176 22.152529)
(-11.703609 -12.998176 6.0859003)
(-1.8282833 -17.394955 6.0859003)
(22.895716 -4.8666344 10.384452)
(-4.6076231 -34.480892 37.380802)
(-10.777411 -33.169464 37.380802)
(-11.675916 -32.769424 37.380802)
(-33.810375 8.1866169 37.380802)
(-31.86121 14.185525 37.380802)
(-31.258884 -13.917353 29.107731)
(-34.21711 -6.2730713 37.380802)
(-34.21711 -7.2730713 36.380802)
(21.38356 23.748848 22.152529)
(22.895716 25.428268 29.107731)
(-22.541195 26.496351 37.380802)
(29.19438 12.998176 22.152529)
(25.853939 18.783987 22.152529)
(31.86121 14.185525 37.380802)
(21.38356 -9.5205736 10.384452)
(9.8753262 4.3967781 3.1113806)
(3.3404398 1.4872589 1.5908947)
(7.2332287 22.261589 10.384452)
(-15.662487 17.394955 10.384452)
(-3.3404398 10.280817 3.1113806)
(-5.4049454 9.36164 3.1113806)
(10.809891 0 3.1113806)
(3.6565666 0 1.5908947)
(-2.9582243 28.145626 15.819169)
(3.3404398 31.782162 22.152529)
(-3.3404398 31.782162 22.152529)
(10.573668 32.542404 29.107731)
(10.809891 33.269424 36.380802)
(3.6565666 34.789909 36.380802)
(-10.809891 33.269424 36.380802)
(-0.38221455 3.6365356 1.5908947)
(0.38221455 3.6365356 1.5908947)
(-31.957228 -14.228274 36.380802)
(-31.86121 -14.185525 37.380802)
(-34.21711 0 29.107731)
(-33.469383 7.1141367 29.107731)
(-23.407219 0 10.384452)
(34.21711 6.2730713 37.380802)
(34.876438 0 37.380802)
(10.777411 -33.169464 37.380802)
(23.407219 0 10.384452)
(34.21711 -6.2730713 37.380802)
(34.114304 -7.2512188 37.380802)