/*--------------------------------*- C++ -*----------------------------------*\
  =========                 |
  \\      /  F ield         | OpenFOAM: The Open Source CFD Toolbox
   \\    /   O peration     | Website:  https://openfoam.org
    \\  /    A nd           | Version:  dev
     \\/     M anipulation  |
\*---------------------------------------------------------------------------*/
FoamFile
{
    format      ascii;
    class       volScalarField;
    object      p;
}
// * * * * * * * * * * * * * * * * * * * * * * * * * * * * * * * * * * * * * //

#include "$FOAM_CASE/constant/initialConditions"

dimensions      [1 -1 -2 0 0 0 0];

internalField   uniform $pInitial;

boundaryField
{
    
    air2_to_solid
    {
        type            zeroGradient;//fixedFluxPressure;
        value           $internalField;
    }
    
    air2_to_lid
    {
        type            zeroGradient;//fixedFluxPressure;
        value           $internalField;
    }

    air2_to_water 
    {
        type            zeroGradient;//fixedFluxPressure;
        value           $internalField;
    }

    #includeEtc "caseDicts/setConstraintTypes"
}

// ************************************************************************* //
