/*--------------------------------*- C++ -*----------------------------------*\
  =========                 |
  \\      /  F ield         | OpenFOAM: The Open Source CFD Toolbox
   \\    /   O peration     | Website:  https://openfoam.org
    \\  /    A nd           | Version:  dev
     \\/     M anipulation  |
\*---------------------------------------------------------------------------*/
FoamFile
{
    format      ascii;
    class       dictionary;
    object      topoSetDict;
}

// * * * * * * * * * * * * * * * * * * * * * * * * * * * * * * * * * * * * * //

#include "$FOAM_CASE/system/blockMeshDict"

actions
(
   
   /* {
        name    solid;
        type    faceSet;
        action  new;
        source  patchToFace;
        patch   solid;
    }*/
    
    {
        name    solid;
        type    cellSet;
        action  new;
        source  boxToCell;//faceToCell;
        min     (-1 -1 -1) 
        max	( 1  1  1)
    }
    
   /* {
        name    solid;
        type    cellZoneSet;
        action  new;
        source  stToCellZone;
        set     solid;
    }*/
);

// ************************************************************************* //
