/*--------------------------------*- C++ -*----------------------------------*\
  =========                 |
  \\      /  F ield         | OpenFOAM: The Open Source CFD Toolbox
   \\    /   O peration     | Website:  https://openfoam.org
    \\  /    A nd           | Version:  12
     \\/     M anipulation  |
\*---------------------------------------------------------------------------*/
FoamFile
{
    format      ascii;
    class       polyBoundaryMesh;
    location    "constant/air1/polyMesh";
    object      boundary;
}
// * * * * * * * * * * * * * * * * * * * * * * * * * * * * * * * * * * * * * //

6
(
    inlet
    {
        type            patch;
        nFaces          758;
        startFace       227822;
    }
    outlet
    {
        type            patch;
        nFaces          1386;
        startFace       228580;
    }
    walls
    {
        type            wall;
        inGroups        List<word> 1(wall);
        nFaces          8834;
        startFace       229966;
    }
    air1_to_solid
    {
        type            mappedWall;
        inGroups        List<word> 
2
(
wall
mapped
)
;
        nFaces          20211;
        startFace       238800;
        neighbourRegion solid;
        neighbourPatch  solid_to_air1;
        transformType   none;
    }
    air1_to_lid
    {
        type            mappedWall;
        inGroups        List<word> 
2
(
wall
mapped
)
;
        nFaces          4078;
        startFace       259011;
        neighbourRegion lid;
        neighbourPatch  lid_to_air1;
        transformType   none;
    }
    procBoundary0to1
    {
        type            processor;
        inGroups        List<word> 1(processor);
        nFaces          2034;
        startFace       263089;
        matchTolerance  0.0001;
        myProcNo        0;
        neighbProcNo    1;
    }
)

// ************************************************************************* //
