/*--------------------------------*- C++ -*----------------------------------*\
  =========                 |
  \\      /  F ield         | OpenFOAM: The Open Source CFD Toolbox
   \\    /   O peration     | Website:  https://openfoam.org
    \\  /    A nd           | Version:  12
     \\/     M anipulation  |
\*---------------------------------------------------------------------------*/
FoamFile
{
    format      ascii;
    class       polyBoundaryMesh;
    location    "constant/water/polyMesh";
    object      boundary;
}
// * * * * * * * * * * * * * * * * * * * * * * * * * * * * * * * * * * * * * //

2
(
    water_to_air2
    {
        type            mappedWall;
        inGroups        List<word> 1(wall);
        nFaces          6912;
        startFace       303484;
        neighbourRegion air2;
        neighbourPatch  air2_to_water;
        transformType   none;
    }
    water_to_solid
    {
        type            mappedWall;
        inGroups        List<word> 1(wall);
        nFaces          63388;
        startFace       310396;
        neighbourRegion solid;
        neighbourPatch  solid_to_water;
        transformType   none;
    }
)

// ************************************************************************* //
