/*--------------------------------*- C++ -*----------------------------------*\
  =========                 |
  \\      /  F ield         | OpenFOAM: The Open Source CFD Toolbox
   \\    /   O peration     | Website:  https://openfoam.org
    \\  /    A nd           | Version:  dev
     \\/     M anipulation  |
\*---------------------------------------------------------------------------*/
FoamFile
{
    format      ascii;
    class       volScalarField;
    object      nut;
}
// * * * * * * * * * * * * * * * * * * * * * * * * * * * * * * * * * * * * * //

dimensions      [0 2 -1 0 0 0 0];

internalField   uniform 0;

boundaryField
{
    air2_to_water
    {
        type            nutkWallFunction;
        value           uniform 0;
    }
    
    air2_to_solid
    {
        type            nutkWallFunction;
        value           uniform 0;
    }

    air2_to_lid
    {
        type            nutkWallFunction;
        value           uniform 0;
    }

    #includeEtc "caseDicts/setConstraintTypes"
}

// ************************************************************************* //
