/*--------------------------------*- C++ -*----------------------------------*\
  =========                 |
  \\      /  F ield         | OpenFOAM: The Open Source CFD Toolbox
   \\    /   O peration     | Website:  https://openfoam.org
    \\  /    A nd           | Version:  dev
     \\/     M anipulation  |
\*---------------------------------------------------------------------------*/
FoamFile
{
    format      ascii;
    class       volScalarField;
    object      omega;
}
// * * * * * * * * * * * * * * * * * * * * * * * * * * * * * * * * * * * * * //

omegaInlet        0;
mixingLengthInlet 0.0035;

dimensions      [0 0 -1 0 0 0 0];

internalField   uniform $omegaInlet;

boundaryField
{
    
    air2_to_solid
    {
        type            omegaWallFunction;
        value           uniform $omegaInlet;
    }
    
    air2_to_lid
    {
        type            omegaWallFunction;
        value           uniform $omegaInlet;
    }

    air2_to_water
    {
        type            omegaWallFunction;
        value           uniform $omegaInlet;
    }

    #includeEtc "caseDicts/setConstraintTypes"
}

// ************************************************************************* //
