/*--------------------------------*- C++ -*----------------------------------*\
| =========                 |                                                 |
| \\      /  F ield         | OpenFOAM: The Open Source CFD Toolbox           |
|  \\    /   O peration     | Version:  v2012                                 |
|   \\  /    A nd           | Website:  www.openfoam.com                      |
|    \\/     M anipulation  |                                                 |
\*---------------------------------------------------------------------------*/
FoamFile
{
    version     2.0;
    format      ascii;
    class       featureEdgeMesh;
    location    "constant/triSurface";
    object      sphere.eMesh;
}
// * * * * * * * * * * * * * * * * * * * * * * * * * * * * * * * * * * * * * //


// points:

682
(
(0.176225 -0.214731 0.415735)
(0.130947 -0.244985 0.415735)
(0.196424 -0.293969 0.353553)
(0.25 -0.25 0.353553)
(0.321367 0.263739 0.277785)
(0.384089 0.25664 0.191342)
(0.326641 0.326641 0.191342)
(-0.0459825 -0.0860272 0.490393)
(-0.106304 -0.159095 0.46194)
(-0.0732233 -0.176777 0.46194)
(0.187665 -0.0373289 -0.46194)
(0.176777 -0.0732233 -0.46194)
(0.0970755 -0.0095611 -0.490393)
(0.191342 -4.68652e-17 -0.46194)
(-0.061882 -0.0754034 0.490393)
(0.34676 -0.0689748 0.353553)
(0.413733 -0.0407491 0.277785)
(0.353553 -8.65956e-17 0.353553)
(0.0689748 -0.34676 -0.353553)
(8.77109e-16 -0.353553 -0.353553)
(0.0272277 -0.276448 -0.415735)
(0.397833 -0.120681 0.277785)
(0.326641 -0.135299 0.353553)
(0.0806368 -0.265824 -0.415735)
(0.0373289 -0.187665 0.46194)
(0.0272277 -0.276448 0.415735)
(0.0806368 -0.265824 0.415735)
(4.74688e-16 -0.191342 0.46194)
(-0.384089 -0.25664 -0.191342)
(-0.426777 -0.176777 -0.191342)
(-0.366645 -0.195976 -0.277785)
(-0.321367 -0.263739 -0.277785)
(0.214731 -0.176225 0.415735)
(0.293969 -0.196424 0.353553)
(-0.415735 0.277785 0)
(-0.353553 0.353553 0)
(-0.379079 0.311102 -0.0975452)
(-0.0283159 -0.0933449 0.490393)
(-0.0373289 -0.187665 0.46194)
(-0.432488 0.231169 -0.0975452)
(0.0732233 -0.176777 0.46194)
(0.09012 0.453064 0.191342)
(0.176777 0.426777 0.191342)
(0.142353 0.469276 0.0975452)
(0.0480669 0.488031 0.0975452)
(0.34676 0.0689748 0.353553)
(0.413733 0.0407491 0.277785)
(0.397833 0.120681 0.277785)
(0.244985 -0.130947 0.415735)
(0.214731 -0.176225 -0.415735)
(0.176225 -0.214731 -0.415735)
(0.135299 -0.135299 -0.46194)
(0.159095 -0.106304 -0.46194)
(-0.120681 -0.397833 -0.277785)
(-0.135299 -0.326641 -0.353553)
(-0.0689748 -0.34676 -0.353553)
(0.106304 -0.159095 0.46194)
(-0.195976 -0.366645 -0.277785)
(0.265824 -0.0806368 0.415735)
(-0.488031 -0.0480669 -0.0975452)
(-0.46194 -3.53714e-16 -0.191342)
(-0.453064 -0.09012 -0.191342)
(-0.488031 0.0480669 -0.0975452)
(0.135299 -0.135299 0.46194)
(-0.231169 0.432488 0.0975452)
(-0.142353 0.469276 0.0975452)
(-0.191342 0.46194 0)
(-0.277785 0.415735 0)
(0.276448 -0.0272277 0.415735)
(0.277785 -6.80377e-17 0.415735)
(0.191342 -4.68652e-17 0.46194)
(0.263739 0.321367 0.277785)
(0.25664 0.384089 0.191342)
(0.135299 -0.326641 -0.353553)
(0.159095 -0.106304 0.46194)
(0.130947 -0.244985 -0.415735)
(-0.326641 -0.326641 -0.191342)
(-0.263739 -0.321367 -0.277785)
(0.176777 -0.0732233 0.46194)
(-0.46194 0.191342 0)
(-0.469276 0.142353 -0.0975452)
(2.82857e-17 0.46194 0.191342)
(-0.0480669 0.488031 0.0975452)
(0.187665 -0.0373289 0.46194)
(0.326641 0.135299 0.353553)
(0.366645 0.195976 0.277785)
(0.244985 -0.130947 -0.415735)
(-0.0407491 -0.413733 -0.277785)
(0.0970755 -0.0095611 0.490393)
(0.0484781 0.00719105 -0.497592)
(-0.469276 -0.142353 -0.0975452)
(-0.311102 0.379079 0.0975452)
(0.195976 0.366645 0.277785)
(0.196424 -0.293969 -0.353553)
(-0.25664 -0.384089 -0.191342)
(-0.490393 0.0975452 0)
(-0.09012 0.453064 0.191342)
(0.293969 0.196424 0.353553)
(0.265824 -0.0806368 -0.415735)
(0.0407491 -0.413733 -0.277785)
(-0.432488 -0.231169 -0.0975452)
(-0.379079 0.311102 0.0975452)
(0.120681 0.397833 0.277785)
(0.276448 0.0272277 0.415735)
(0.25 -0.25 -0.353553)
(-0.176777 -0.426777 -0.191342)
(-0.5 -3.82857e-16 0)
(0.0119081 0.0475398 -0.497592)
(0.187665 0.0373289 -0.46194)
(-0.176777 0.426777 0.191342)
(0.25 0.25 0.353553)
(0.276448 -0.0272277 -0.415735)
(0.277785 -6.80377e-17 -0.415735)
(0.353553 -8.65956e-17 -0.353553)
(0.176777 0.0732233 -0.46194)
(0.120681 -0.397833 -0.277785)
(-0.379079 -0.311102 -0.0975452)
(0.00240474 0.0489495 -0.497592)
(0.159095 0.106304 -0.46194)
(-0.432488 0.231169 0.0975452)
(0.0407491 0.413733 0.277785)
(0.276448 0.0272277 -0.415735)
(0.265824 0.0806368 0.415735)
(0.293969 -0.196424 -0.353553)
(0.135299 0.135299 -0.46194)
(0.00719105 -0.0484781 -0.497592)
(-0.09012 -0.453064 -0.191342)
(0.265824 0.0806368 -0.415735)
(-0.490393 -0.0975452 0)
(0.106304 0.159095 -0.46194)
(-0.25664 0.384089 0.191342)
(0.0251954 -0.0420361 -0.497592)
(0.196424 0.293969 0.353553)
(0.0329121 -0.036313 -0.497592)
(0.244985 0.130947 -0.415735)
(0.195976 -0.366645 -0.277785)
(0.0732233 0.176777 -0.46194)
(-0.311102 -0.379079 -0.0975452)
(-0.469276 0.142353 0.0975452)
(0.214731 0.176225 -0.415735)
(-0.0407491 0.413733 0.277785)
(0.0475398 -0.0119081 -0.497592)
(0.244985 0.130947 0.415735)
(0.0373289 0.187665 -0.46194)
(0.0484781 0.00719105 0.497592)
(0.34676 0.0689748 -0.353553)
(0.326641 -0.135299 -0.353553)
(1.146e-15 -0.46194 -0.191342)
(0.176225 0.214731 -0.415735)
(-0.46194 -0.191342 0)
(-0.326641 0.326641 0.191342)
(1.17163e-17 0.191342 -0.46194)
(0.135299 0.326641 0.353553)
(0.326641 0.135299 -0.353553)
(0.263739 -0.321367 -0.277785)
(0.130947 0.244985 -0.415735)
(-0.231169 -0.432488 -0.0975452)
(-0.488031 0.0480669 0.0975452)
(-0.0373289 0.187665 -0.46194)
(-0.0283159 0.0933449 -0.490393)
(0.293969 0.196424 -0.353553)
(-0.120681 0.397833 0.277785)
(0.214731 0.176225 0.415735)
(0.34676 -0.0689748 -0.353553)
(0.0806368 0.265824 -0.415735)
(0.09012 -0.453064 -0.191342)
(0.413733 0.0407491 -0.277785)
(0.415735 -1.01826e-16 -0.277785)
(0.46194 -1.13143e-16 -0.191342)
(-0.415735 -0.277785 0)
(-0.0732233 0.176777 -0.46194)
(-0.0459825 0.0860272 -0.490393)
(-0.384089 0.25664 0.191342)
(0.25 0.25 -0.353553)
(0.0689748 0.34676 0.353553)
(0.187665 0.0373289 0.46194)
(0.0272277 0.276448 -0.415735)
(0.321367 -0.263739 -0.277785)
(0.397833 0.120681 -0.277785)
(-0.142353 -0.469276 -0.0975452)
(-0.488031 -0.0480669 0.0975452)
(0.0119081 0.0475398 0.497592)
(-0.106304 0.159095 -0.46194)
(-0.061882 0.0754034 -0.490393)
(0.196424 0.293969 -0.353553)
(-0.195976 0.366645 0.277785)
(0.176225 0.214731 0.415735)
(0.176777 -0.426777 -0.191342)
(0.00240474 0.0489495 0.497592)
(-0.0272277 0.276448 -0.415735)
(0.366645 0.195976 -0.277785)
(-0.353553 -0.353553 0)
(-0.135299 0.135299 -0.46194)
(-0.0754034 0.061882 -0.490393)
(-0.426777 0.176777 0.191342)
(0.135299 0.326641 -0.353553)
(2.16489e-17 0.353553 0.353553)
(0.00719105 -0.0484781 0.497592)
(0.176777 0.0732233 0.46194)
(0.366645 -0.195976 -0.277785)
(-0.0806368 0.265824 -0.415735)
(-0.0480669 -0.488031 -0.0975452)
(0.321367 0.263739 -0.277785)
(0.0251954 -0.0420361 0.497592)
(-0.469276 -0.142353 0.0975452)
(-0.159095 0.106304 -0.46194)
(-0.0860272 0.0459825 -0.490393)
(-0.263739 0.321367 0.277785)
(0.0329121 -0.036313 0.497592)
(0.0689748 0.34676 -0.353553)
(0.130947 0.244985 0.415735)
(0.453064 0.09012 -0.191342)
(0.25664 -0.384089 -0.191342)
(-0.277785 -0.415735 0)
(-0.130947 0.244985 -0.415735)
(0.263739 0.321367 -0.277785)
(0.0475398 -0.0119081 0.497592)
(-0.453064 0.09012 0.191342)
(-0.0689748 0.34676 0.353553)
(0.0239377 0.00537539 -0.499398)
(-0.176777 0.0732233 -0.46194)
(0.159095 0.106304 0.46194)
(-0.0933449 0.0283159 -0.490393)
(2.16489e-17 0.353553 -0.353553)
(0.397833 -0.120681 -0.277785)
(0.426777 0.176777 -0.191342)
(0.0480669 -0.488031 -0.0975452)
(-0.432488 -0.231169 0.0975452)
(-0.176225 0.214731 -0.415735)
(-0.321367 0.263739 0.277785)
(0.195976 0.366645 -0.277785)
(0.0806368 0.265824 0.415735)
(-0.187665 0.0373289 -0.46194)
(-0.0689748 0.34676 -0.353553)
(0.326641 -0.326641 -0.191342)
(0.384089 0.25664 -0.191342)
(-0.191342 -0.46194 0)
(-0.46194 -3.53714e-16 0.191342)
(-0.135299 0.326641 0.353553)
(-0.214731 0.176225 -0.415735)
(0.135299 0.135299 0.46194)
(0.120681 0.397833 -0.277785)
(0.413733 -0.0407491 -0.277785)
(0.488031 0.0480669 -0.0975452)
(0.490393 -1.20112e-16 -0.0975452)
(0.5 -1.22465e-16 7.65714e-16)
(-0.191342 -1.46513e-16 -0.46194)
(0.142353 -0.469276 -0.0975452)
(-0.379079 -0.311102 0.0975452)
(-0.135299 0.326641 -0.353553)
(-0.366645 0.195976 0.277785)
(0.326641 0.326641 -0.191342)
(0.0272277 0.276448 0.415735)
(0.384089 -0.25664 -0.191342)
(-0.244985 0.130947 -0.415735)
(0.0407491 0.413733 -0.277785)
(-0.0975452 -0.490393 0)
(-0.453064 -0.09012 0.191342)
(0.469276 0.142353 -0.0975452)
(-0.0195674 0.0707077 -0.494588)
(-0.196424 0.293969 0.353553)
(-0.187665 -0.0373289 -0.46194)
(-0.0933449 -0.0283159 -0.490393)
(-0.0264038 0.0684492 -0.494588)
(-0.196424 0.293969 -0.353553)
(-0.0329858 0.0655316 -0.494588)
(0.106304 0.159095 0.46194)
(0.231169 -0.432488 -0.0975452)
(0.25664 0.384089 -0.191342)
(-0.0392502 0.0619829 -0.494588)
(-0.311102 -0.379079 0.0975452)
(-0.265824 0.0806368 -0.415735)
(-0.397833 0.120681 0.277785)
(-0.0505883 0.0531346 -0.494588)
(-0.0407491 0.413733 -0.277785)
(-0.0272277 0.276448 0.415735)
(-0.0555528 0.0479202 -0.494588)
(0.432488 0.231169 -0.0975452)
(0.426777 -0.176777 -0.191342)
(-0.176777 -0.0732233 -0.46194)
(-0.0860272 -0.0459825 -0.490393)
(1.24042e-15 -0.5 0)
(-0.25 0.25 -0.353553)
(-0.426777 -0.176777 0.191342)
(0.176777 0.426777 -0.191342)
(-0.25 0.25 0.353553)
(0.0732233 0.176777 0.46194)
(-0.061882 -0.0754034 -0.490393)
(-0.0754034 -0.061882 -0.490393)
(-0.0459825 -0.0860272 -0.490393)
(-0.276448 0.0272277 -0.415735)
(0.311102 -0.379079 -0.0975452)
(-0.0361616 -0.0638341 -0.494588)
(-0.0297306 -0.0670712 -0.494588)
(-0.120681 0.397833 -0.277785)
(-0.0283159 -0.0933449 -0.490393)
(-0.231169 -0.432488 0.0975452)
(0.379079 0.311102 -0.0975452)
(-0.413733 0.0407491 0.277785)
(-0.0806368 0.265824 0.415735)
(-0.159095 -0.106304 -0.46194)
(0.0177686 -0.0169171 -0.499398)
(-0.293969 0.196424 -0.353553)
(0.0185772 -0.0160248 -0.499398)
(0.453064 -0.09012 -0.191342)
(0.09012 0.453064 -0.191342)
(0.0975452 -0.490393 0)
(0.490393 0.0975452 0)
(-0.384089 -0.25664 0.191342)
(-0.276448 -0.0272277 -0.415735)
(-0.293969 0.196424 0.353553)
(0.0373289 0.187665 0.46194)
(-0.195976 0.366645 -0.277785)
(0.311102 0.379079 -0.0975452)
(0.379079 -0.311102 -0.0975452)
(-0.142353 -0.469276 0.0975452)
(0.0239377 -0.00537539 -0.499398)
(-0.135299 -0.135299 -0.46194)
(-0.413733 -0.0407491 0.277785)
(0.0239377 0.00537539 0.499398)
(-0.326641 0.135299 -0.353553)
(-0.130947 0.244985 0.415735)
(2.82857e-17 0.46194 -0.191342)
(0.46194 0.191342 0)
(0.191342 -0.46194 0)
(-0.326641 -0.326641 0.191342)
(-0.265824 -0.0806368 -0.415735)
(-0.326641 0.135299 0.353553)
(-0.263739 0.321367 -0.277785)
(1.17163e-17 0.191342 0.46194)
(0.231169 0.432488 -0.0975452)
(0.432488 -0.231169 -0.0975452)
(-0.0480669 -0.488031 0.0975452)
(-0.106304 -0.159095 -0.46194)
(-0.34676 0.0689748 -0.353553)
(-0.397833 -0.120681 0.277785)
(-0.09012 0.453064 -0.191342)
(-0.176225 0.214731 0.415735)
(0.415735 0.277785 0)
(0.277785 -0.415735 0)
(-0.25664 -0.384089 0.191342)
(-0.244985 -0.130947 -0.415735)
(-0.34676 0.0689748 0.353553)
(-0.321367 0.263739 -0.277785)
(-0.0373289 0.187665 0.46194)
(0.142353 0.469276 -0.0975452)
(0.469276 -0.142353 -0.0975452)
(0.488031 0.0480669 0.0975452)
(0.490393 -1.20112e-16 0.0975452)
(0.46194 -1.13143e-16 0.191342)
(0.0480669 -0.488031 0.0975452)
(-0.0732233 -0.176777 -0.46194)
(-0.366645 -0.195976 0.277785)
(-0.353553 -2.70721e-16 -0.353553)
(-0.214731 0.176225 0.415735)
(-0.176777 0.426777 -0.191342)
(0.353553 0.353553 0)
(0.353553 -0.353553 0)
(-0.0195674 0.0707077 0.494588)
(-0.176777 -0.426777 0.191342)
(-0.0283159 0.0933449 0.490393)
(-0.0264038 0.0684492 0.494588)
(-0.0459825 0.0860272 0.490393)
(-0.214731 -0.176225 -0.415735)
(-0.353553 -2.70721e-16 0.353553)
(-0.366645 0.195976 -0.277785)
(-0.0732233 0.176777 0.46194)
(-0.0329858 0.0655316 0.494588)
(0.488031 -0.0480669 -0.0975452)
(0.0480669 0.488031 -0.0975452)
(-0.0392502 0.0619829 0.494588)
(-0.061882 0.0754034 0.490393)
(0.142353 -0.469276 0.0975452)
(0.469276 0.142353 0.0975452)
(-0.321367 -0.263739 0.277785)
(-0.0373289 -0.187665 -0.46194)
(-0.0505883 0.0531346 0.494588)
(-0.244985 0.130947 0.415735)
(-0.0754034 0.061882 0.490393)
(-0.34676 -0.0689748 -0.353553)
(-0.0555528 0.0479202 0.494588)
(-0.25664 0.384089 -0.191342)
(-0.0860272 0.0459825 0.490393)
(0.415735 -0.277785 0)
(0.277785 0.415735 0)
(-0.09012 -0.453064 0.191342)
(-0.0754034 -0.061882 0.490393)
(-0.34676 -0.0689748 0.353553)
(-0.0361616 -0.0638341 0.494588)
(-0.176225 -0.214731 -0.415735)
(-0.106304 0.159095 0.46194)
(-0.397833 0.120681 -0.277785)
(0.231169 -0.432488 0.0975452)
(-0.0297306 -0.0670712 0.494588)
(-0.263739 -0.321367 0.277785)
(-0.0480669 0.488031 -0.0975452)
(-0.265824 0.0806368 0.415735)
(0.432488 0.231169 0.0975452)
(4.74688e-16 -0.191342 -0.46194)
(0.46194 -0.191342 0)
(-0.326641 -0.135299 -0.353553)
(0.0177686 -0.0169171 0.499398)
(-0.326641 0.326641 -0.191342)
(1.146e-15 -0.46194 0.191342)
(-0.326641 -0.135299 0.353553)
(0.0185772 -0.0160248 0.499398)
(0.191342 0.46194 0)
(-0.135299 0.135299 0.46194)
(0.311102 -0.379079 0.0975452)
(-0.130947 -0.244985 -0.415735)
(-0.195976 -0.366645 0.277785)
(-0.413733 0.0407491 -0.277785)
(-0.276448 0.0272277 0.415735)
(-0.142353 0.469276 -0.0975452)
(0.379079 0.311102 0.0975452)
(0.490393 -0.0975452 0)
(0.09012 -0.453064 0.191342)
(0.0373289 -0.187665 -0.46194)
(0.0239377 -0.00537539 0.499398)
(-0.293969 -0.196424 0.353553)
(0.0128156 0.0344775 -0.498645)
(-0.293969 -0.196424 -0.353553)
(-0.159095 0.106304 0.46194)
(-0.384089 0.25664 -0.191342)
(0.379079 -0.311102 0.0975452)
(0.0975452 0.490393 0)
(-0.120681 -0.397833 0.277785)
(0.453064 0.09012 0.191342)
(-0.276448 -0.0272277 0.415735)
(-0.0806368 -0.265824 -0.415735)
(0.176777 -0.426777 0.191342)
(-0.413733 -0.0407491 -0.277785)
(-0.25 -0.25 0.353553)
(-0.231169 0.432488 -0.0975452)
(-0.176777 0.0732233 0.46194)
(0.311102 0.379079 0.0975452)
(0.432488 -0.231169 0.0975452)
(0.0732233 -0.176777 -0.46194)
(-0.0407491 -0.413733 0.277785)
(-0.25 -0.25 -0.353553)
(-0.265824 -0.0806368 0.415735)
(-0.426777 0.176777 -0.191342)
(0.00060209 -0.0245264 -0.499398)
(0.00454631 -0.0282552 -0.49918)
(3.06162e-17 0.5 0)
(0.25664 -0.384089 0.191342)
(-0.196424 -0.293969 0.353553)
(0.426777 0.176777 0.191342)
(0.0128156 0.0344775 0.498645)
(-0.187665 0.0373289 0.46194)
(-0.0272277 -0.276448 -0.415735)
(0.469276 -0.142353 0.0975452)
(-0.397833 -0.120681 -0.277785)
(0.0407491 -0.413733 0.277785)
(-0.244985 -0.130947 0.415735)
(-0.311102 0.379079 -0.0975452)
(0.231169 0.432488 0.0975452)
(0.326641 -0.326641 0.191342)
(0.106304 -0.159095 -0.46194)
(-0.135299 -0.326641 0.353553)
(-0.196424 -0.293969 -0.353553)
(-0.191342 -1.46513e-16 0.46194)
(-0.453064 0.09012 -0.191342)
(0.488031 -0.0480669 0.0975452)
(-0.0933449 0.0283159 0.490393)
(-0.0975452 0.490393 0)
(0.120681 -0.397833 0.277785)
(-0.214731 -0.176225 0.415735)
(-0.0933449 -0.0283159 0.490393)
(-0.0860272 -0.0459825 0.490393)
(0.384089 -0.25664 0.191342)
(0.00060209 -0.0245264 0.499398)
(0.00454631 -0.0282552 0.49918)
(-0.0689748 -0.34676 0.353553)
(-0.187665 -0.0373289 0.46194)
(0.195976 -0.366645 0.277785)
(-0.176225 -0.214731 0.415735)
(0.415735 -1.01826e-16 0.277785)
(0.426777 -0.176777 0.191342)
(8.77109e-16 -0.353553 0.353553)
(-0.0298736 -0.00690116 -0.499059)
(-0.176777 -0.0732233 0.46194)
(0.263739 -0.321367 0.277785)
(-0.130947 -0.244985 0.415735)
(0.453064 -0.09012 0.191342)
(0.0689748 -0.34676 0.353553)
(-0.159095 -0.106304 0.46194)
(0.321367 -0.263739 0.277785)
(-0.0806368 -0.265824 0.415735)
(-0.0298736 -0.00690116 0.499059)
(0.135299 -0.326641 0.353553)
(-0.135299 -0.135299 0.46194)
(0.366645 -0.195976 0.277785)
(-0.0272277 -0.276448 0.415735)
(0.0933449 -0.0283159 -0.490393)
(-0.0095611 -0.0970755 0.490393)
(0.0095611 -0.0970755 0.490393)
(0.0283159 -0.0933449 0.490393)
(0.0459825 -0.0860272 0.490393)
(0.061882 -0.0754034 0.490393)
(0.0754034 -0.061882 0.490393)
(0.0860272 -0.0459825 0.490393)
(0.0933449 -0.0283159 0.490393)
(0.0975452 -2.38917e-17 0.490393)
(0.0975452 -2.38917e-17 -0.490393)
(3.06162e-17 -7.4988e-33 -0.5)
(0.0970755 0.0095611 -0.490393)
(0.0475398 0.0119081 -0.497592)
(0.0933449 0.0283159 -0.490393)
(0.0461437 0.0165105 -0.497592)
(0.0443032 0.0209539 -0.497592)
(0.0860272 0.0459825 -0.490393)
(0.0420361 0.0251954 -0.497592)
(0.0393641 0.0291944 -0.497592)
(0.0754034 0.061882 -0.490393)
(0.036313 0.0329121 -0.497592)
(0.0329121 0.036313 -0.497592)
(0.061882 0.0754034 -0.490393)
(0.0291944 0.0393641 -0.497592)
(0.0251954 0.0420361 -0.497592)
(0.0459825 0.0860272 -0.490393)
(0.0209539 0.0443032 -0.497592)
(0.0165105 0.0461437 -0.497592)
(0.0283159 0.0933449 -0.490393)
(0.00719105 0.0484781 -0.497592)
(0.0095611 0.0970755 -0.490393)
(-0.00240474 0.0489495 -0.497592)
(-0.0095611 0.0970755 -0.490393)
(0.00240474 -0.0489495 -0.497592)
(0.0095611 -0.0970755 -0.490393)
(-0.0095611 -0.0970755 -0.490393)
(0.0119081 -0.0475398 -0.497592)
(0.0283159 -0.0933449 -0.490393)
(0.0165105 -0.0461437 -0.497592)
(0.0209539 -0.0443032 -0.497592)
(0.0459825 -0.0860272 -0.490393)
(0.0291944 -0.0393641 -0.497592)
(0.061882 -0.0754034 -0.490393)
(0.036313 -0.0329121 -0.497592)
(0.0754034 -0.061882 -0.490393)
(0.0393641 -0.0291944 -0.497592)
(0.0420361 -0.0251954 -0.497592)
(0.0860272 -0.0459825 -0.490393)
(0.0443032 -0.0209539 -0.497592)
(0.0461437 -0.0165105 -0.497592)
(0.0484781 -0.00719105 -0.497592)
(3.06162e-17 -7.4988e-33 0.5)
(0.0970755 0.0095611 0.490393)
(0.0475398 0.0119081 0.497592)
(0.0933449 0.0283159 0.490393)
(0.0461437 0.0165105 0.497592)
(0.0443032 0.0209539 0.497592)
(0.0860272 0.0459825 0.490393)
(0.0420361 0.0251954 0.497592)
(0.0393641 0.0291944 0.497592)
(0.0754034 0.061882 0.490393)
(0.036313 0.0329121 0.497592)
(0.0329121 0.036313 0.497592)
(0.061882 0.0754034 0.490393)
(0.0291944 0.0393641 0.497592)
(0.0251954 0.0420361 0.497592)
(0.0459825 0.0860272 0.490393)
(0.0209539 0.0443032 0.497592)
(0.0165105 0.0461437 0.497592)
(0.0283159 0.0933449 0.490393)
(0.00719105 0.0484781 0.497592)
(0.0095611 0.0970755 0.490393)
(-0.00240474 0.0489495 0.497592)
(-0.0095611 0.0970755 0.490393)
(0.00240474 -0.0489495 0.497592)
(0.0119081 -0.0475398 0.497592)
(0.0165105 -0.0461437 0.497592)
(0.0209539 -0.0443032 0.497592)
(0.0291944 -0.0393641 0.497592)
(0.036313 -0.0329121 0.497592)
(0.0393641 -0.0291944 0.497592)
(0.0420361 -0.0251954 0.497592)
(0.0443032 -0.0209539 0.497592)
(0.0461437 -0.0165105 0.497592)
(0.0484781 -0.00719105 0.497592)
(0.0236451 0.00654349 -0.499398)
(0.0232956 0.00769582 -0.499398)
(0.0228899 0.00882961 -0.499398)
(0.0224291 0.00994212 -0.499398)
(-0.0970755 0.0095611 -0.490393)
(0.0219142 0.0110307 -0.499398)
(0.0213466 0.0120927 -0.499398)
(0.0207275 0.0131255 -0.499398)
(0.0200585 0.0141268 -0.499398)
(-0.0970755 -0.0095611 -0.490393)
(0.0193412 0.015094 -0.499398)
(0.0185772 0.0160248 -0.499398)
(0.0177686 0.0169171 -0.499398)
(0.0169171 0.0177686 -0.499398)
(-0.0451366 0.0578372 -0.494588)
(-0.0489495 -0.00240474 -0.497592)
(-0.0479202 -0.0555528 -0.494588)
(-0.0422443 -0.0599823 -0.494588)
(-0.0169171 -0.0177686 -0.499398)
(-0.0154154 -0.0288402 -0.498929)
(-0.0230133 -0.0696624 -0.494588)
(-0.0160744 -0.0715826 -0.494588)
(0.0193412 -0.015094 -0.499398)
(0.0200585 -0.0141268 -0.499398)
(0.0207275 -0.0131255 -0.499398)
(0.0213466 -0.0120927 -0.499398)
(0.0219142 -0.0110307 -0.499398)
(0.0224291 -0.00994212 -0.499398)
(0.0228899 -0.00882961 -0.499398)
(0.0232956 -0.00769582 -0.499398)
(0.0236451 -0.00654349 -0.499398)
(0.0236451 0.00654349 0.499398)
(0.0232956 0.00769582 0.499398)
(0.0228899 0.00882961 0.499398)
(0.0224291 0.00994212 0.499398)
(0.0219142 0.0110307 0.499398)
(0.0213466 0.0120927 0.499398)
(0.0207275 0.0131255 0.499398)
(0.0200585 0.0141268 0.499398)
(0.0193412 0.015094 0.499398)
(0.0185772 0.0160248 0.499398)
(0.0177686 0.0169171 0.499398)
(0.0169171 0.0177686 0.499398)
(-0.0451366 0.0578372 0.494588)
(-0.0489495 -0.00240474 0.497592)
(-0.0970755 0.0095611 0.490393)
(-0.0970755 -0.0095611 0.490393)
(-0.0479202 -0.0555528 0.494588)
(-0.0422443 -0.0599823 0.494588)
(-0.0169171 -0.0177686 0.499398)
(-0.0230133 -0.0696624 0.494588)
(-0.0154154 -0.0288402 0.498929)
(-0.0160744 -0.0715826 0.494588)
(0.0193412 -0.015094 0.499398)
(0.0200585 -0.0141268 0.499398)
(0.0207275 -0.0131255 0.499398)
(0.0213466 -0.0120927 0.499398)
(0.0219142 -0.0110307 0.499398)
(0.0224291 -0.00994212 0.499398)
(0.0228899 -0.00882961 0.499398)
(0.0232956 -0.00769582 0.499398)
(0.0236451 -0.00654349 0.499398)
(-0.00026767 0.0163574 -0.499732)
(-0.00483452 0.0112781 -0.499849)
(-0.0241144 0.0562547 -0.49624)
(-0.0268457 0.0550037 -0.49624)
(-0.0177686 0.0169171 -0.499398)
(-0.036313 0.0329121 -0.497592)
(-0.0578762 0.0199107 -0.49624)
(-0.0344775 0.0128156 -0.498645)
(-0.0707077 -0.0195674 -0.494588)
(-0.0487095 -0.0370605 -0.49624)
(0.00483452 -0.0112781 -0.499849)
(-0.00026767 0.0163574 0.499732)
(-0.0241144 0.0562547 0.49624)
(-0.0268457 0.0550037 0.49624)
(-0.00483452 0.0112781 0.499849)
(-0.036313 0.0329121 0.497592)
(-0.0177686 0.0169171 0.499398)
(-0.0578762 0.0199107 0.49624)
(-0.0344775 0.0128156 0.498645)
(-0.0707077 -0.0195674 0.494588)
(-0.0487095 -0.0370605 0.49624)
(0.00483452 -0.0112781 0.499849)
(0.00573723 0.00583188 -0.499933)
(0.00337748 0.00512253 -0.499962)
(-0.018113 0.00325752 -0.499661)
(-0.0245264 -0.00060209 -0.499398)
(-0.0112781 -0.00483452 -0.499849)
(-0.00337748 -0.00512253 -0.499962)
(-0.00205264 -0.00791917 -0.499933)
(0.00573723 0.00583188 0.499933)
(0.00337748 0.00512253 0.499962)
(-0.018113 0.00325752 0.499661)
(-0.0245264 -0.00060209 0.499398)
(-0.0112781 -0.00483452 0.499849)
(-0.00337748 -0.00512253 0.499962)
(-0.00205264 -0.00791917 0.499933)
(-0.00512253 0.00337748 -0.499962)
(-0.00916696 0.000817752 -0.499915)
(-0.00512253 0.00337748 0.499962)
(-0.00916696 0.000817752 0.499915)
)


// edges:

2040
(
(2 0)
(0 1)
(1 2)
(3 0)
(2 3)
(6 4)
(5 6)
(4 5)
(7 8)
(9 7)
(8 9)
(494 10)
(10 11)
(11 494)
(10 12)
(13 10)
(12 13)
(494 12)
(7 14)
(14 8)
(15 16)
(17 15)
(16 17)
(20 18)
(18 19)
(19 20)
(15 21)
(21 16)
(15 22)
(22 21)
(23 18)
(20 23)
(24 25)
(26 24)
(25 26)
(24 27)
(27 25)
(30 28)
(28 29)
(29 30)
(31 28)
(30 31)
(32 3)
(33 32)
(3 33)
(32 0)
(36 34)
(34 35)
(35 36)
(37 9)
(38 37)
(9 38)
(39 34)
(36 39)
(37 7)
(26 40)
(40 24)
(43 41)
(41 42)
(42 43)
(44 41)
(43 44)
(1 40)
(26 1)
(45 46)
(47 45)
(46 47)
(33 48)
(48 32)
(45 17)
(17 46)
(22 48)
(33 22)
(51 49)
(49 50)
(50 51)
(38 495)
(495 37)
(52 49)
(51 52)
(27 495)
(38 27)
(53 54)
(55 53)
(54 55)
(1 56)
(56 40)
(53 57)
(57 54)
(0 56)
(58 22)
(15 58)
(58 48)
(59 60)
(61 59)
(60 61)
(59 62)
(62 60)
(27 496)
(496 495)
(24 496)
(0 63)
(63 56)
(66 64)
(64 65)
(65 66)
(67 64)
(66 67)
(32 63)
(69 68)
(68 17)
(17 69)
(70 68)
(69 70)
(15 68)
(68 58)
(6 71)
(71 4)
(497 24)
(40 497)
(72 71)
(6 72)
(497 496)
(23 73)
(73 18)
(32 74)
(74 63)
(75 73)
(23 75)
(48 74)
(76 31)
(77 76)
(31 77)
(498 40)
(56 498)
(76 28)
(498 497)
(48 78)
(78 74)
(79 39)
(80 79)
(39 80)
(58 78)
(79 34)
(499 56)
(63 499)
(499 498)
(81 44)
(82 81)
(44 82)
(81 41)
(83 68)
(70 83)
(83 58)
(83 78)
(84 47)
(85 84)
(47 85)
(84 45)
(500 63)
(74 500)
(500 499)
(74 501)
(501 500)
(86 52)
(11 86)
(52 11)
(78 501)
(86 49)
(502 78)
(83 502)
(502 501)
(87 55)
(19 87)
(55 19)
(88 70)
(503 88)
(70 503)
(87 53)
(88 83)
(88 502)
(89 504)
(505 89)
(89 506)
(506 504)
(90 61)
(29 90)
(61 29)
(507 508)
(508 506)
(90 59)
(89 507)
(67 91)
(91 64)
(35 91)
(67 35)
(509 508)
(507 509)
(92 72)
(42 92)
(72 42)
(92 71)
(510 511)
(511 508)
(93 75)
(50 93)
(75 50)
(93 73)
(509 510)
(94 77)
(57 94)
(77 57)
(512 511)
(510 512)
(94 76)
(80 95)
(95 79)
(513 514)
(514 511)
(62 95)
(80 62)
(512 513)
(82 96)
(96 81)
(65 96)
(82 65)
(97 85)
(4 97)
(85 4)
(515 514)
(513 515)
(97 84)
(11 98)
(98 86)
(10 98)
(99 19)
(18 99)
(99 87)
(515 516)
(516 517)
(517 514)
(100 29)
(28 100)
(518 517)
(516 518)
(100 90)
(101 35)
(34 101)
(101 91)
(102 42)
(41 102)
(519 520)
(520 517)
(102 92)
(518 519)
(103 69)
(17 103)
(103 70)
(506 13)
(13 504)
(45 103)
(50 104)
(104 93)
(49 104)
(521 520)
(519 521)
(521 522)
(57 105)
(105 94)
(53 105)
(522 523)
(523 520)
(62 106)
(106 95)
(59 106)
(107 523)
(522 107)
(108 506)
(508 108)
(65 109)
(109 96)
(108 13)
(64 109)
(110 4)
(71 110)
(110 97)
(112 111)
(111 13)
(13 112)
(112 113)
(113 111)
(508 114)
(114 108)
(111 10)
(111 98)
(511 114)
(524 525)
(525 523)
(107 524)
(18 115)
(115 99)
(73 115)
(116 28)
(76 116)
(117 525)
(524 117)
(116 100)
(118 511)
(514 118)
(118 114)
(527 525)
(34 119)
(119 101)
(79 119)
(117 526)
(41 120)
(120 102)
(121 112)
(13 121)
(121 113)
(81 120)
(108 121)
(122 45)
(84 122)
(122 103)
(123 49)
(86 123)
(528 529)
(529 530)
(123 104)
(514 124)
(124 118)
(517 124)
(125 529)
(528 125)
(531 532)
(532 529)
(125 531)
(53 126)
(126 105)
(87 126)
(127 108)
(114 127)
(127 121)
(533 532)
(531 533)
(59 128)
(128 106)
(90 128)
(533 534)
(534 535)
(535 532)
(517 129)
(129 124)
(130 64)
(91 130)
(130 109)
(520 129)
(131 535)
(534 131)
(132 71)
(92 132)
(131 536)
(536 537)
(537 535)
(132 110)
(133 537)
(536 133)
(114 134)
(134 127)
(118 134)
(135 73)
(93 135)
(133 538)
(135 115)
(538 539)
(539 537)
(520 136)
(136 129)
(540 539)
(538 540)
(523 136)
(76 137)
(137 116)
(94 137)
(540 541)
(541 542)
(542 539)
(543 542)
(541 543)
(138 79)
(95 138)
(543 544)
(118 139)
(139 134)
(138 119)
(544 494)
(494 542)
(140 81)
(96 140)
(124 139)
(141 494)
(544 141)
(504 545)
(545 505)
(140 120)
(84 142)
(142 122)
(141 545)
(12 545)
(504 12)
(523 143)
(143 136)
(97 142)
(503 144)
(144 546)
(525 143)
(547 144)
(503 547)
(121 145)
(145 113)
(86 146)
(146 123)
(98 146)
(127 145)
(548 144)
(549 548)
(547 549)
(147 87)
(99 147)
(549 550)
(550 548)
(147 126)
(552 551)
(549 552)
(124 148)
(148 139)
(149 90)
(100 149)
(149 128)
(551 550)
(129 148)
(91 150)
(150 130)
(552 553)
(553 551)
(525 151)
(151 143)
(101 150)
(527 151)
(152 92)
(102 152)
(153 127)
(134 153)
(555 554)
(552 555)
(153 145)
(152 132)
(554 553)
(93 154)
(154 135)
(555 556)
(556 554)
(104 154)
(155 129)
(136 155)
(94 156)
(156 137)
(155 148)
(105 156)
(157 95)
(106 157)
(158 527)
(159 158)
(527 159)
(558 557)
(555 558)
(158 151)
(157 138)
(557 556)
(160 134)
(139 160)
(96 161)
(161 140)
(160 153)
(109 161)
(97 162)
(162 142)
(110 162)
(558 559)
(559 557)
(98 163)
(163 146)
(163 111)
(113 163)
(164 136)
(143 164)
(164 155)
(99 165)
(165 147)
(166 113)
(145 166)
(115 165)
(166 167)
(167 113)
(166 168)
(168 167)
(560 559)
(100 169)
(169 149)
(561 560)
(558 561)
(159 170)
(170 158)
(116 169)
(171 170)
(159 171)
(101 172)
(172 150)
(173 139)
(148 173)
(119 172)
(173 160)
(561 562)
(562 560)
(102 174)
(174 152)
(563 562)
(120 174)
(564 563)
(561 564)
(103 175)
(175 70)
(122 175)
(143 176)
(176 164)
(104 177)
(177 154)
(123 177)
(151 176)
(145 178)
(178 166)
(105 179)
(179 156)
(153 178)
(126 179)
(180 106)
(128 180)
(564 181)
(181 563)
(182 171)
(183 182)
(171 183)
(182 170)
(180 157)
(566 565)
(564 566)
(184 148)
(155 184)
(184 173)
(109 185)
(185 161)
(130 185)
(565 181)
(186 110)
(132 186)
(186 162)
(115 187)
(187 165)
(566 188)
(188 565)
(189 151)
(158 189)
(135 187)
(189 176)
(567 188)
(190 153)
(160 190)
(190 178)
(191 116)
(137 191)
(191 169)
(566 568)
(192 183)
(193 192)
(183 193)
(192 182)
(119 194)
(194 172)
(496 569)
(138 194)
(155 195)
(195 184)
(164 195)
(196 120)
(140 196)
(196 174)
(496 197)
(197 569)
(198 122)
(142 198)
(198 175)
(570 197)
(497 570)
(123 199)
(199 177)
(200 158)
(170 200)
(146 199)
(497 571)
(571 570)
(200 189)
(201 126)
(147 201)
(201 179)
(572 571)
(498 572)
(202 160)
(173 202)
(498 203)
(203 572)
(204 128)
(149 204)
(202 190)
(204 180)
(573 203)
(193 205)
(205 192)
(499 573)
(206 205)
(193 206)
(207 130)
(150 207)
(499 208)
(208 573)
(207 185)
(209 164)
(176 209)
(209 195)
(574 208)
(132 210)
(210 186)
(152 210)
(500 574)
(500 575)
(575 574)
(166 211)
(211 168)
(178 211)
(501 576)
(576 575)
(135 212)
(212 187)
(154 212)
(501 577)
(577 576)
(213 137)
(156 213)
(213 191)
(214 170)
(182 214)
(578 577)
(502 578)
(214 200)
(173 215)
(215 202)
(502 216)
(216 578)
(217 138)
(157 217)
(579 503)
(546 579)
(217 194)
(579 88)
(579 216)
(184 215)
(218 140)
(161 218)
(218 196)
(89 219)
(219 507)
(505 219)
(206 220)
(220 205)
(142 221)
(221 198)
(222 220)
(206 222)
(162 221)
(219 580)
(580 507)
(223 176)
(189 223)
(224 146)
(163 224)
(223 209)
(224 199)
(580 581)
(178 225)
(225 211)
(581 509)
(190 225)
(226 147)
(165 226)
(226 201)
(227 149)
(169 227)
(227 204)
(182 228)
(228 214)
(582 581)
(150 229)
(229 207)
(192 228)
(582 509)
(172 229)
(184 230)
(230 215)
(195 230)
(152 231)
(231 210)
(583 582)
(583 510)
(174 231)
(232 222)
(584 232)
(222 584)
(70 547)
(232 220)
(175 547)
(233 189)
(200 233)
(154 234)
(234 212)
(177 234)
(233 223)
(585 510)
(583 585)
(235 190)
(202 235)
(156 236)
(236 213)
(235 225)
(585 586)
(179 236)
(157 237)
(237 217)
(586 512)
(180 237)
(161 238)
(238 218)
(192 239)
(239 228)
(185 238)
(205 239)
(587 512)
(586 587)
(162 240)
(240 221)
(241 195)
(209 241)
(186 240)
(167 242)
(242 113)
(241 230)
(168 242)
(242 163)
(243 168)
(211 243)
(242 224)
(243 244)
(244 168)
(243 245)
(245 244)
(587 588)
(584 246)
(246 232)
(165 247)
(247 226)
(588 513)
(187 247)
(589 246)
(584 589)
(169 248)
(248 227)
(249 200)
(214 249)
(590 513)
(588 590)
(191 248)
(249 233)
(250 172)
(194 250)
(251 202)
(215 251)
(250 229)
(251 235)
(174 252)
(252 231)
(590 591)
(591 515)
(196 252)
(175 549)
(198 549)
(253 177)
(199 253)
(254 205)
(220 254)
(253 234)
(592 515)
(591 592)
(254 239)
(209 255)
(255 241)
(223 255)
(256 179)
(201 256)
(256 236)
(257 180)
(204 257)
(593 516)
(211 258)
(258 243)
(593 518)
(592 593)
(259 527)
(526 259)
(225 258)
(257 237)
(259 159)
(260 185)
(207 260)
(261 589)
(262 261)
(589 262)
(261 246)
(159 263)
(263 171)
(260 238)
(259 263)
(214 264)
(264 249)
(265 171)
(263 265)
(186 266)
(266 240)
(228 264)
(210 266)
(187 267)
(267 247)
(215 268)
(268 251)