/*--------------------------------*- C++ -*----------------------------------*\
  =========                 |
  \\      /  F ield         | OpenFOAM: The Open Source CFD Toolbox
   \\    /   O peration     | Website:  https://openfoam.org
    \\  /    A nd           | Version:  dev
     \\/     M anipulation  |
\*---------------------------------------------------------------------------*/
FoamFile
{
    format      ascii;
    class       polyBoundaryMesh;
    location    "constant/air/polyMesh";
    object      boundary;
}
// * * * * * * * * * * * * * * * * * * * * * * * * * * * * * * * * * * * * * //

12
(
    inlet
    {
        type            patch;
        nFaces          0;
        startFace       53550;
    }
    outlet
    {
        type            patch;
        nFaces          0;
        startFace       53550;
    }
    walls
    {
        type            wall;
        inGroups        List<word> 1(wall);
        nFaces          183;
        startFace       53550;
    }
    air_to_water
    {
        type            mappedWall;
        inGroups        List<word> 
2
(
wall
mapped
)
;
        nFaces          1117;
        startFace       53733;
        neighbourRegion water;
        neighbourPatch  water_to_air;
        transformType   none;
    }
    air_to_solid
    {
        type            mappedWall;
        inGroups        List<word> 
2
(
wall
mapped
)
;
        nFaces          5213;
        startFace       54850;
        neighbourRegion solid;
        neighbourPatch  solid_to_air;
        transformType   none;
    }
    procBoundary8to0
    {
        type            processor;
        inGroups        List<word> 1(processor);
        nFaces          573;
        startFace       60063;
        matchTolerance  0.0001;
        myProcNo        8;
        neighbProcNo    0;
    }
    procBoundary8to1
    {
        type            processor;
        inGroups        List<word> 1(processor);
        nFaces          3;
        startFace       60636;
        matchTolerance  0.0001;
        myProcNo        8;
        neighbProcNo    1;
    }
    procBoundary8to3
    {
        type            processor;
        inGroups        List<word> 1(processor);
        nFaces          64;
        startFace       60639;
        matchTolerance  0.0001;
        myProcNo        8;
        neighbProcNo    3;
    }
    procBoundary8to4
    {
        type            processor;
        inGroups        List<word> 1(processor);
        nFaces          83;
        startFace       60703;
        matchTolerance  0.0001;
        myProcNo        8;
        neighbProcNo    4;
    }
    procBoundary8to5
    {
        type            processor;
        inGroups        List<word> 1(processor);
        nFaces          45;
        startFace       60786;
        matchTolerance  0.0001;
        myProcNo        8;
        neighbProcNo    5;
    }
    procBoundary8to7
    {
        type            processor;
        inGroups        List<word> 1(processor);
        nFaces          480;
        startFace       60831;
        matchTolerance  0.0001;
        myProcNo        8;
        neighbProcNo    7;
    }
    procBoundary8to11
    {
        type            processor;
        inGroups        List<word> 1(processor);
        nFaces          417;
        startFace       61311;
        matchTolerance  0.0001;
        myProcNo        8;
        neighbProcNo    11;
    }
)

// ************************************************************************* //
