/*--------------------------------*- C++ -*----------------------------------*\
  =========                 |
  \\      /  F ield         | OpenFOAM: The Open Source CFD Toolbox
   \\    /   O peration     | Website:  https://openfoam.org
    \\  /    A nd           | Version:  12
     \\/     M anipulation  |
\*---------------------------------------------------------------------------*/
FoamFile
{
    format      ascii;
    class       extendedFeatureEdgeMesh;
    location    "constant/extendedFeatureEdgeMesh";
    object      air.extendedFeatureEdgeMesh;
}
// * * * * * * * * * * * * * * * * * * * * * * * * * * * * * * * * * * * * * //

// points

208
(
(50 50 80)
(-50 50 80)
(-50 -50 80)
(50 -50 80)
(-50 50 -20)
(-50 -50 -20)
(50 -50 -20)
(50 50 -20)
(-9.9802675 0.62790519 -25)
(-10 -1.7763568e-15 -25)
(-9.9211473 1.2533324 -25)
(-9.8228722 1.8738132 -25)
(-9.685832 2.4868989 -25)
(-9.5105648 3.0901699 -25)
(-9.2977648 3.6812456 -25)
(-9.0482702 4.2577929 -25)
(-8.7630672 4.8175368 -25)
(-8.4432793 5.3582678 -25)
(-8.0901699 5.8778524 -25)
(-7.7051325 6.3742399 -25)
(-7.2896862 6.8454709 -25)
(-6.8454709 7.2896862 -25)
(-6.3742399 7.7051325 -25)
(-5.8778524 8.0901699 -25)
(-5.3582678 8.4432793 -25)
(-4.8175368 8.7630672 -25)
(-4.2577929 9.0482702 -25)
(-3.6812456 9.2977648 -25)
(-3.0901699 9.5105648 -25)
(-2.4868989 9.685832 -25)
(-1.8738132 9.8228722 -25)
(-1.2533324 9.9211473 -25)
(-0.62790519 9.9802675 -25)
(5.3290705e-15 10 -25)
(0.62790519 9.9802675 -25)
(1.2533324 9.9211473 -25)
(1.8738132 9.8228722 -25)
(2.4868989 9.685832 -25)
(3.0901699 9.5105648 -25)
(3.6812456 9.2977648 -25)
(4.2577929 9.0482702 -25)
(4.8175368 8.7630672 -25)
(5.3582678 8.4432793 -25)
(5.8778524 8.0901699 -25)
(6.3742399 7.7051325 -25)
(6.8454709 7.2896862 -25)
(7.2896862 6.8454709 -25)
(7.7051325 6.3742399 -25)
(8.0901699 5.8778524 -25)
(8.4432793 5.3582678 -25)
(8.7630672 4.8175368 -25)
(9.0482702 4.2577929 -25)
(9.2977648 3.6812456 -25)
(9.5105648 3.0901699 -25)
(9.685832 2.4868989 -25)
(9.8228722 1.8738132 -25)
(9.9211473 1.2533324 -25)
(9.9802675 0.62790519 -25)
(10 -2.4868996e-14 -25)
(9.9802675 -0.62790519 -25)
(9.9211473 -1.2533324 -25)
(9.8228722 -1.8738132 -25)
(9.685832 -2.4868989 -25)
(9.5105648 -3.0901699 -25)
(9.2977648 -3.6812456 -25)
(9.0482702 -4.2577929 -25)
(8.7630672 -4.8175368 -25)
(8.4432793 -5.3582678 -25)
(8.0901699 -5.8778524 -25)
(7.7051325 -6.3742399 -25)
(7.2896862 -6.8454709 -25)
(6.8454709 -7.2896862 -25)
(6.3742399 -7.7051325 -25)
(5.8778524 -8.0901699 -25)
(5.3582678 -8.4432793 -25)
(4.8175368 -8.7630672 -25)
(4.2577929 -9.0482702 -25)
(3.6812456 -9.2977648 -25)
(3.0901699 -9.5105648 -25)
(2.4868989 -9.685832 -25)
(1.8738132 -9.8228722 -25)
(1.2533324 -9.9211473 -25)
(0.62790519 -9.9802675 -25)
(1.7763568e-15 -10 -25)
(-0.62790519 -9.9802675 -25)
(-1.2533324 -9.9211473 -25)
(-1.8738132 -9.8228722 -25)
(-2.4868989 -9.685832 -25)
(-3.0901699 -9.5105648 -25)
(-3.6812456 -9.2977648 -25)
(-4.2577929 -9.0482702 -25)
(-4.8175368 -8.7630672 -25)
(-5.3582678 -8.4432793 -25)
(-5.8778524 -8.0901699 -25)
(-6.3742399 -7.7051325 -25)
(-6.8454709 -7.2896862 -25)
(-7.2896862 -6.8454709 -25)
(-7.7051325 -6.3742399 -25)
(-8.0901699 -5.8778524 -25)
(-8.4432793 -5.3582678 -25)
(-8.7630672 -4.8175368 -25)
(-9.0482702 -4.2577929 -25)
(-9.2977648 -3.6812456 -25)
(-9.5105648 -3.0901699 -25)
(-9.685832 -2.4868989 -25)
(-9.8228722 -1.8738132 -25)
(-9.9211473 -1.2533324 -25)
(-9.9802675 -0.62790519 -25)
(-10 0 -20)
(-9.9802675 0.62790519 -20)
(-9.9211473 1.2533324 -20)
(-9.8228722 1.8738132 -20)
(-9.685832 2.4868989 -20)
(-9.5105648 3.0901699 -20)
(-9.2977648 3.6812456 -20)
(-9.0482702 4.2577929 -20)
(-8.7630672 4.8175368 -20)
(-8.4432793 5.3582678 -20)
(-8.0901699 5.8778524 -20)
(-7.7051325 6.3742399 -20)
(-7.2896862 6.8454709 -20)
(-6.8454709 7.2896862 -20)
(-6.3742399 7.7051325 -20)
(-5.8778524 8.0901699 -20)
(-5.3582678 8.4432793 -20)
(-4.8175368 8.7630672 -20)
(-4.2577929 9.0482702 -20)
(-3.6812456 9.2977648 -20)
(-3.0901699 9.5105648 -20)
(-2.4868989 9.685832 -20)
(-1.8738132 9.8228722 -20)
(-1.2533324 9.9211473 -20)
(-0.62790519 9.9802675 -20)
(7.1054274e-15 10 -20)
(0.62790519 9.9802675 -20)
(1.2533324 9.9211473 -20)
(1.8738132 9.8228722 -20)
(2.4868989 9.685832 -20)
(3.0901699 9.5105648 -20)
(3.6812456 9.2977648 -20)
(4.2577929 9.0482702 -20)
(4.8175368 8.7630672 -20)
(5.3582678 8.4432793 -20)
(5.8778524 8.0901699 -20)
(6.3742399 7.7051325 -20)
(6.8454709 7.2896862 -20)
(7.2896862 6.8454709 -20)
(7.7051325 6.3742399 -20)
(8.0901699 5.8778524 -20)
(8.4432793 5.3582678 -20)
(8.7630672 4.8175368 -20)
(9.0482702 4.2577929 -20)
(9.2977648 3.6812456 -20)
(9.5105648 3.0901699 -20)
(9.685832 2.4868989 -20)
(9.8228722 1.8738132 -20)
(9.9211473 1.2533324 -20)
(9.9802675 0.62790519 -20)
(10 -2.8421709e-14 -20)
(9.9802675 -0.62790519 -20)
(9.9211473 -1.2533324 -20)
(9.8228722 -1.8738132 -20)
(9.685832 -2.4868989 -20)
(9.5105648 -3.0901699 -20)
(9.2977648 -3.6812456 -20)
(9.0482702 -4.2577929 -20)
(8.7630672 -4.8175368 -20)
(8.4432793 -5.3582678 -20)
(8.0901699 -5.8778524 -20)
(7.7051325 -6.3742399 -20)
(7.2896862 -6.8454709 -20)
(6.8454709 -7.2896862 -20)
(6.3742399 -7.7051325 -20)
(5.8778524 -8.0901699 -20)
(5.3582678 -8.4432793 -20)
(4.8175368 -8.7630672 -20)
(4.2577929 -9.0482702 -20)
(3.6812456 -9.2977648 -20)
(3.0901699 -9.5105648 -20)
(2.4868989 -9.685832 -20)
(1.8738132 -9.8228722 -20)
(1.2533324 -9.9211473 -20)
(0.62790519 -9.9802675 -20)
(0 -10 -20)
(-0.62790519 -9.9802675 -20)
(-1.2533324 -9.9211473 -20)
(-1.8738132 -9.8228722 -20)
(-2.4868989 -9.685832 -20)
(-3.0901699 -9.5105648 -20)
(-3.6812456 -9.2977648 -20)
(-4.2577929 -9.0482702 -20)
(-4.8175368 -8.7630672 -20)
(-5.3582678 -8.4432793 -20)
(-5.8778524 -8.0901699 -20)
(-6.3742399 -7.7051325 -20)
(-6.8454709 -7.2896862 -20)
(-7.2896862 -6.8454709 -20)
(-7.7051325 -6.3742399 -20)
(-8.0901699 -5.8778524 -20)
(-8.4432793 -5.3582678 -20)
(-8.7630672 -4.8175368 -20)
(-9.0482702 -4.2577929 -20)
(-9.2977648 -3.6812456 -20)
(-9.5105648 -3.0901699 -20)
(-9.685832 -2.4868989 -20)
(-9.8228722 -1.8738132 -20)
(-9.9211473 -1.2533324 -20)
(-9.9802675 -0.62790519 -20)
)

// edges

212
(
(8 9)
(10 8)
(11 10)
(12 11)
(13 12)
(14 13)
(15 14)
(16 15)
(17 16)
(18 17)
(19 18)
(20 19)
(21 20)
(22 21)
(23 22)
(24 23)
(25 24)
(26 25)
(27 26)
(28 27)
(29 28)
(30 29)
(31 30)
(32 31)
(33 32)
(34 33)
(35 34)
(36 35)
(37 36)
(38 37)
(39 38)
(40 39)
(41 40)
(42 41)
(43 42)
(44 43)
(45 44)
(46 45)
(47 46)
(48 47)
(49 48)
(50 49)
(51 50)
(52 51)
(53 52)
(54 53)
(55 54)
(56 55)
(57 56)
(58 57)
(59 58)
(60 59)
(61 60)
(62 61)
(63 62)
(64 63)
(65 64)
(66 65)
(67 66)
(68 67)
(69 68)
(70 69)
(71 70)
(72 71)
(73 72)
(74 73)
(75 74)
(76 75)
(77 76)
(78 77)
(79 78)
(80 79)
(81 80)
(82 81)
(83 82)
(84 83)
(85 84)
(86 85)
(87 86)
(88 87)
(89 88)
(90 89)
(91 90)
(92 91)
(93 92)
(94 93)
(95 94)
(96 95)
(97 96)
(98 97)
(99 98)
(100 99)
(101 100)
(102 101)
(103 102)
(104 103)
(105 104)
(106 105)
(107 106)
(9 107)
(1 2)
(0 1)
(2 3)
(3 0)
(5 2)
(4 5)
(1 4)
(5 6)
(6 3)
(7 4)
(0 7)
(7 6)
(108 109)
(109 110)
(110 111)
(111 112)
(112 113)
(113 114)
(114 115)
(115 116)
(116 117)
(117 118)
(118 119)
(119 120)
(120 121)
(121 122)
(122 123)
(123 124)
(124 125)
(125 126)
(126 127)
(127 128)
(128 129)
(129 130)
(130 131)
(131 132)
(132 133)
(133 134)
(134 135)
(135 136)
(136 137)
(137 138)
(138 139)
(139 140)
(140 141)
(141 142)
(142 143)
(143 144)
(144 145)
(145 146)
(146 147)
(147 148)
(148 149)
(149 150)
(150 151)
(151 152)
(152 153)
(153 154)
(154 155)
(155 156)
(156 157)
(157 158)
(158 159)
(159 160)
(160 161)
(161 162)
(162 163)
(163 164)
(164 165)
(165 166)
(166 167)
(167 168)
(168 169)
(169 170)
(170 171)
(171 172)
(172 173)
(173 174)
(174 175)
(175 176)
(176 177)
(177 178)
(178 179)
(179 180)
(180 181)
(181 182)
(182 183)
(183 184)
(184 185)
(185 186)
(186 187)
(187 188)
(188 189)
(189 190)
(190 191)
(191 192)
(192 193)
(193 194)
(194 195)
(195 196)
(196 197)
(197 198)
(198 199)
(199 200)
(200 201)
(201 202)
(202 203)
(203 204)
(204 205)
(205 206)
(206 207)
(207 108)
)

// concaveStart mixedStart nonFeatureStart
8 8 8
// internalStart flatStart openStart multipleStart
112 212 212 212
// normals

381
(
(-0.99950657 0.031410377 -1.104541e-17)
(0 -0 -1)
(-0.99556198 0.09410816 0)
(0 0 -1)
(-0.98768817 0.15643553 0)
(0 0 -1)
(-0.97591702 0.21814209 0)
(-0.96029335 0.27899227 0)
(0 0 -1)
(-0.94088092 0.33873749 0)
(0 0 -1)
(-0.9177545 0.39714819 0)
(-0.89100702 0.45398952 0)
(0 0 -1)
(-0.86074162 0.50904211 0)
(-0.82708058 0.56208337 0)
(0 0 -1)
(-0.79015515 0.61290688 0)
(0 0 -1)
(-0.75011084 0.66131212 0)
(-0.70710678 0.70710678 0)
(0 0 -1)
(-0.66131212 0.75011084 0)
(0 0 -1)
(-0.61290688 0.79015515 0)
(0 0 -1)
(-0.56208337 0.82708058 0)
(-0.50904211 0.86074162 0)
(0 0 -1)
(-0.45398952 0.89100702 0)
(0 0 -1)
(-0.39714819 0.9177545 0)
(0 0 -1)
(-0.33873749 0.94088092 0)
(-0.27899227 0.96029335 0)
(0 0 -1)
(-0.21814209 0.97591702 0)
(0 0 -1)
(-0.15643553 0.98768817 0)
(-0.09410816 0.99556198 0)
(0 0 -1)
(-0.031410377 0.99950657 -2.1087672e-19)
(0.031410377 0.99950657 -1.1256286e-17)
(0 0 -1)
(0.09410816 0.99556198 -0)
(0.15643553 0.98768817 -0)
(0 0 -1)
(0.21814209 0.97591702 0)
(0.27899227 0.96029335 0)
(0 0 -1)
(0.33873749 0.94088092 -0)
(0 0 -1)
(0.39714819 0.9177545 0)
(0.45398952 0.89100702 0)
(0 0 -1)
(0.50904211 0.86074162 -0)
(0.56208337 0.82708058 0)
(0 0 -1)
(0.61290688 0.79015515 0)
(0 0 -1)
(0.66131212 0.75011084 0)
(0 0 -1)
(0.70710678 0.70710678 0)
(0.75011084 0.66131212 0)
(0 0 -1)
(0.79015515 0.61290688 -0)
(0 0 -1)
(0.82708058 0.56208337 -0)
(0.86074162 0.50904211 0)
(0 0 -1)
(0.89100702 0.45398952 -0)
(0 0 -1)
(0.9177545 0.39714819 -0)
(0.94088092 0.33873749 0)
(0 0 -1)
(0.96029335 0.27899227 0)
(0 0 -1)
(0.97591702 0.21814209 -0)
(0.98768817 0.15643553 0)
(0 0 -1)
(0.99556198 0.09410816 -0)
(0 0 -1)
(0.99950657 0.031410377 6.3640544e-20)
(0 0 -1)
(0.99950657 -0.031410377 -2.2254775e-17)
(0.99556198 -0.09410816 0)
(0 0 -1)
(0.98768817 -0.15643553 0)
(0.97591702 -0.21814209 0)
(0 0 -1)
(0.96029335 -0.27899227 0)
(0 0 -1)
(0.94088092 -0.33873749 0)
(0 0 -1)
(0.9177545 -0.39714819 0)
(0.89100702 -0.45398952 0)
(0 0 -1)
(0.86074162 -0.50904211 0)
(0 0 -1)
(0.82708058 -0.56208337 0)
(0.79015515 -0.61290688 0)
(0 0 -1)
(0.75011084 -0.66131212 0)
(0 0 -1)
(0.70710678 -0.70710678 0)
(0.66131212 -0.75011084 0)
(0 0 -1)
(0.61290688 -0.79015515 0)
(0.56208337 -0.82708058 0)
(0 0 -1)
(0.50904211 -0.86074162 0)
(0 0 -1)
(0.45398952 -0.89100702 0)
(0.39714819 -0.9177545 0)
(0 0 -1)
(0.33873749 -0.94088092 0)
(0.27899227 -0.96029335 0)
(0 0 -1)
(0.21814209 -0.97591702 0)
(0.15643553 -0.98768817 0)
(0 0 -1)
(0.09410816 -0.99556198 0)
(0 0 -1)
(0.031410377 -0.99950657 -1.1379792e-19)
(0 0 -1)
(-0.031410377 -0.99950657 -1.1159208e-17)
(-0.09410816 -0.99556198 0)
(0 0 -1)
(-0.15643553 -0.98768817 0)
(0 0 -1)
(-0.21814209 -0.97591702 0)
(-0.27899227 -0.96029335 0)
(0 0 -1)
(-0.33873749 -0.94088092 0)
(0 0 -1)
(-0.39714819 -0.9177545 0)
(-0.45398952 -0.89100702 0)
(0 0 -1)
(-0.50904211 -0.86074162 0)
(0 0 -1)
(-0.56208337 -0.82708058 0)
(0 0 -1)
(-0.61290688 -0.79015515 0)
(-0.66131212 -0.75011084 0)
(0 0 -1)
(-0.70710678 -0.70710678 0)
(0 0 -1)
(-0.75011084 -0.66131212 0)
(0 0 -1)
(-0.79015515 -0.61290688 0)
(-0.82708058 -0.56208337 0)
(0 0 -1)
(-0.86074162 -0.50904211 0)
(0 0 -1)
(-0.89100702 -0.45398952 0)
(-0.9177545 -0.39714819 0)
(0 0 -1)
(-0.94088092 -0.33873749 0)
(0 0 -1)
(-0.96029335 -0.27899227 0)
(-0.97591702 -0.21814209 0)
(0 0 -1)
(-0.98768817 -0.15643553 0)
(0 0 -1)
(-0.99556198 -0.09410816 0)
(0 -0 -1)
(-0.99950657 -0.031410377 1.1379792e-19)
(0 0 1)
(-1 0 0)
(0 1 0)
(0 0 1)
(-0 -1 0)
(1 -0 0)
(-1 0 0)
(0 0 -1)
(0 -1 -0)
(0 0 -1)
(1 0 0)
(0 1 0)
(-0 0 -1)
(0 -0 -1)
(-0.99950657 0.031410377 0)
(0 0 -1)
(-0.99556198 0.09410816 0)
(0 0 -1)
(-0.98768817 0.15643553 0)
(0 0 -1)
(-0.97591702 0.21814209 0)
(0 0 -1)
(-0.96029335 0.27899227 0)
(0 0 -1)
(-0.94088092 0.33873749 0)
(0 0 -1)
(-0.9177545 0.39714819 0)
(0 0 -1)
(-0.89100702 0.45398952 0)
(0 0 -1)
(-0.86074162 0.50904211 0)
(0 0 -1)
(-0.82708058 0.56208337 0)
(0 0 -1)
(-0.79015515 0.61290688 0)
(0 0 -1)
(-0.75011084 0.66131212 0)
(0 0 -1)
(-0.70710678 0.70710678 0)
(-0 0 -1)
(-0.66131212 0.75011084 0)
(-0 0 -1)
(-0.61290688 0.79015515 0)
(-0 0 -1)
(-0.56208337 0.82708058 0)
(-0 0 -1)
(-0.50904211 0.86074162 0)
(-0 0 -1)
(-0.45398952 0.89100702 0)
(-0 0 -1)
(-0.39714819 0.9177545 0)
(-0 0 -1)
(-0.33873749 0.94088092 0)
(-0 0 -1)
(-0.27899227 0.96029335 0)
(-0 0 -1)
(-0.21814209 0.97591702 0)
(-0 0 -1)
(-0.15643553 0.98768817 0)
(-0 0 -1)
(-0.09410816 0.99556198 0)
(-0 0 -1)
(-0.031410377 0.99950657 1.1159208e-17)
(-0 0 -1)
(0.031410377 0.99950657 -0)
(0 0 -1)
(0.09410816 0.99556198 -0)
(0 0 -1)
(0.15643553 0.98768817 -0)
(0 0 -1)
(0.21814209 0.97591702 -0)
(0 0 -1)
(0.27899227 0.96029335 -0)
(0 0 -1)
(0.33873749 0.94088092 -0)
(0 0 -1)
(0.39714819 0.9177545 -0)
(0 0 -1)
(0.45398952 0.89100702 -0)
(0 0 -1)
(0.50904211 0.86074162 -0)
(0 0 -1)
(0.56208337 0.82708058 -0)
(0 0 -1)
(0.61290688 0.79015515 -0)
(0 0 -1)
(0.66131212 0.75011084 -0)
(0 0 -1)
(0.70710678 0.70710678 -0)
(0 0 -1)
(0.75011084 0.66131212 -0)
(0 0 -1)
(0.79015515 0.61290688 -0)
(0 0 -1)
(0.82708058 0.56208337 -0)
(0 0 -1)
(0.86074162 0.50904211 -0)
(0 0 -1)
(0.89100702 0.45398952 -0)
(0 0 -1)
(0.9177545 0.39714819 -0)
(0 0 -1)
(0.94088092 0.33873749 -0)
(0 0 -1)
(0.96029335 0.27899227 -0)
(0 0 -1)
(0.97591702 0.21814209 -0)
(0 0 -1)
(0.98768817 0.15643553 -0)
(0 0 -1)
(0.99556198 0.09410816 -0)
(0 0 -1)
(0.99950657 0.031410377 2.2318415e-17)
(0 0 -1)
(0.99950657 -0.031410377 0)
(0 -0 -1)
(0.99556198 -0.09410816 0)
(0 -0 -1)
(0.98768817 -0.15643553 0)
(0 -0 -1)
(0.97591702 -0.21814209 0)
(0 -0 -1)
(0.96029335 -0.27899227 0)
(0 -0 -1)
(0.94088092 -0.33873749 0)
(0 -0 -1)
(0.9177545 -0.39714819 0)
(0 -0 -1)
(0.89100702 -0.45398952 0)
(0 -0 -1)
(0.86074162 -0.50904211 0)
(0 -0 -1)
(0.82708058 -0.56208337 0)
(0 -0 -1)
(0.79015515 -0.61290688 0)
(0 -0 -1)
(0.75011084 -0.66131212 0)
(0 -0 -1)
(0.70710678 -0.70710678 0)
(0 -0 -1)
(0.66131212 -0.75011084 0)
(0 0 -1)
(0.61290688 -0.79015515 0)
(0 0 -1)
(0.56208337 -0.82708058 0)
(0 0 -1)
(0.50904211 -0.86074162 0)
(0 0 -1)
(0.45398952 -0.89100702 0)
(0 0 -1)
(0.39714819 -0.9177545 0)
(0 0 -1)
(0.33873749 -0.94088092 0)
(0 0 -1)
(0.27899227 -0.96029335 0)
(0 0 -1)
(0.21814209 -0.97591702 0)
(0 0 -1)
(0.15643553 -0.98768817 0)
(0 0 -1)
(0.09410816 -0.99556198 0)
(0 0 -1)
(0.031410377 -0.99950657 1.1159208e-17)
(0 0 -1)
(-0.031410377 -0.99950657 0)
(-0 0 -1)
(-0.09410816 -0.99556198 0)
(-0 0 -1)
(-0.15643553 -0.98768817 0)
(-0 0 -1)
(-0.21814209 -0.97591702 0)
(-0 0 -1)
(-0.27899227 -0.96029335 0)
(-0 0 -1)
(-0.33873749 -0.94088092 0)
(-0 0 -1)
(-0.39714819 -0.9177545 0)
(-0 0 -1)
(-0.45398952 -0.89100702 0)
(-0 0 -1)
(-0.50904211 -0.86074162 0)
(-0 0 -1)
(-0.56208337 -0.82708058 0)
(-0 0 -1)
(-0.61290688 -0.79015515 0)
(-0 0 -1)
(-0.66131212 -0.75011084 0)
(-0 0 -1)
(-0.70710678 -0.70710678 0)
(-0 0 -1)
(-0.75011084 -0.66131212 0)
(0 -0 -1)
(-0.79015515 -0.61290688 0)
(0 -0 -1)
(-0.82708058 -0.56208337 0)
(0 -0 -1)
(-0.86074162 -0.50904211 0)
(0 -0 -1)
(-0.89100702 -0.45398952 0)
(0 -0 -1)
(-0.9177545 -0.39714819 0)
(0 -0 -1)
(-0.94088092 -0.33873749 0)
(0 -0 -1)
(-0.96029335 -0.27899227 0)
(0 -0 -1)
(-0.97591702 -0.21814209 0)
(0 -0 -1)
(-0.98768817 -0.15643553 0)
(0 -0 -1)
(-0.99556198 -0.09410816 0)
(0 -0 -1)
(-0.99950657 -0.031410377 1.1159208e-17)
(0 -0 -1)
)

// normal volume types

381
(
0
0
0
0
0
0
0
0
0
0
0
0
0
0
0
0
0
0
0
0
0
0
0
0
0
0
0
0
0
0
0
0
0
0
0
0
0
0
0
0
0
0
0
0
0
0
0
0
0
0
0
0
0
0
0
0
0
0
0
0
0
0
0
0
0
0
0
0
0
0
0
0
0
0
0
0
0
0
0
0
0
0
0
0
0
0
0
0
0
0
0
0
0
0
0
0
0
0
0
0
0
0
0
0
0
0
0
0
0
0
0
0
0
0
0
0
0
0
0
0
0
0
0
0
0
0
0
0
0
0
0
0
0
0
0
0
0
0
0
0
0
0
0
0
0
0
0
0
0
0
0
0
0
0
0
0
0
0
0
0
0
0
0
0
0
0
0
0
0
0
0
0
0
0
0
0
0
0
0
0
0
0
0
0
0
0
0
0
0
0
0
0
0
0
0
0
0
0
0
0
0
0
0
0
0
0
0
0
0
0
0
0
0
0
0
0
0
0
0
0
0
0
0
0
0
0
0
0
0
0
0
0
0
0
0
0
0
0
0
0
0
0
0
0
0
0
0
0
0
0
0
0
0
0
0
0
0
0
0
0
0
0
0
0
0
0
0
0
0
0
0
0
0
0
0
0
0
0
0
0
0
0
0
0
0
0
0
0
0
0
0
0
0
0
0
0
0
0
0
0
0
0
0
0
0
0
0
0
0
0
0
0
0
0
0
0
0
0
0
0
0
0
0
0
0
0
0
0
0
0
0
0
0
0
0
0
0
0
0
0
0
0
0
0
0
0
0
0
0
0
0
0
0
0
0
0
0
0
0
0
0
0
0
0
0
0
0
0
0
0
0
0
0
0
0
0
0
0
0
0
0
)

// normalDirections

212
(
2(1 -1)
2(1 -1)
2(1 -1)
2(1 -1)
2(1 -1)
2(1 -1)
2(1 -1)
2(1 -1)
2(1 -1)
2(1 -1)
2(1 -1)
2(1 -1)
2(1 -1)
2(1 -1)
2(1 -1)
2(1 -1)
2(1 -1)
2(1 -1)
2(1 -1)
2(1 -1)
2(1 -1)
2(1 -1)
2(1 -1)
2(1 -1)
2(1 -1)
2(1 -1)
2(1 -1)
2(1 -1)
2(1 -1)
2(1 -1)
2(1 -1)
2(1 -1)
2(1 -1)
2(1 -1)
2(1 -1)
2(1 -1)
2(1 -1)
2(1 -1)
2(1 -1)
2(1 -1)
2(1 -1)
2(1 -1)
2(1 -1)
2(1 -1)
2(1 -1)
2(1 -1)
2(1 -1)
2(1 -1)
2(1 -1)
2(1 -1)
2(1 -1)
2(1 -1)
2(1 -1)
2(1 -1)
2(1 -1)
2(1 -1)
2(1 -1)
2(1 -1)
2(1 -1)
2(1 -1)
2(1 -1)
2(1 -1)
2(1 -1)
2(1 -1)
2(1 -1)
2(1 -1)
2(1 -1)
2(1 -1)
2(1 -1)
2(1 -1)
2(1 -1)
2(1 -1)
2(1 -1)
2(1 -1)
2(1 -1)
2(1 -1)
2(1 -1)
2(1 -1)
2(1 -1)
2(1 -1)
2(1 -1)
2(1 -1)
2(1 -1)
2(1 -1)
2(1 -1)
2(1 -1)
2(1 -1)
2(1 -1)
2(1 -1)
2(1 -1)
2(1 -1)
2(1 -1)
2(1 -1)
2(1 -1)
2(1 -1)
2(1 -1)
2(1 -1)
2(1 -1)
2(1 -1)
2(1 -1)
2(1 -1)
2(1 -1)
2(1 -1)
2(1 -1)
2(1 -1)
2(1 -1)
2(1 -1)
2(1 -1)
2(1 -1)
2(1 -1)
2(1 -1)
2(1 -1)
2(1 -1)
2(1 -1)
2(1 -1)
2(1 -1)
2(1 -1)
2(1 -1)
2(1 -1)
2(1 -1)
2(1 -1)
2(1 -1)
2(1 -1)
2(1 -1)
2(1 -1)
2(1 -1)
2(1 -1)
2(1 -1)
2(1 -1)
2(1 -1)
2(1 -1)
2(1 -1)
2(1 -1)
2(1 -1)
2(1 -1)
2(1 -1)
2(1 -1)
2(1 -1)
2(1 -1)
2(1 -1)
2(1 -1)
2(1 -1)
2(1 -1)
2(1 -1)
2(1 -1)
2(1 -1)
2(1 -1)
2(1 -1)
2(1 -1)
2(1 -1)
2(1 -1)
2(1 -1)
2(1 -1)
2(1 -1)
2(1 -1)
2(1 -1)
2(1 -1)
2(1 -1)
2(1 -1)
2(1 -1)
2(1 -1)
2(1 -1)
2(1 -1)
2(1 -1)
2(1 -1)
2(1 -1)
2(1 -1)
2(1 -1)
2(1 -1)
2(1 -1)
2(1 -1)
2(1 -1)
2(1 -1)
2(1 -1)
2(1 -1)
2(1 -1)
2(1 -1)
2(1 -1)
2(1 -1)
2(1 -1)
2(1 -1)
2(1 -1)
2(1 -1)
2(1 -1)
2(1 -1)
2(1 -1)
2(1 -1)
2(1 -1)
2(1 -1)
2(1 -1)
2(1 -1)
2(1 -1)
2(1 -1)
2(1 -1)
2(1 -1)
2(1 -1)
2(1 -1)
2(1 -1)
2(1 -1)
2(1 -1)
2(1 -1)
2(1 -1)
2(1 -1)
2(1 -1)
2(1 -1)
2(1 -1)
2(1 -1)
2(1 -1)
2(1 -1)
2(1 -1)
2(1 -1)
2(1 -1)
)

// edgeNormals

212
(
2(0 1)
2(2 3)
2(4 5)
2(6 5)
2(7 8)
2(9 10)
2(11 10)
2(12 13)
2(14 13)
2(15 16)
2(17 18)
2(19 18)
2(20 21)
2(22 23)
2(24 25)
2(26 25)
2(27 28)
2(29 30)
2(31 32)
2(33 32)
2(34 35)
2(36 37)
2(38 37)
2(39 40)
2(41 40)
2(42 43)
2(44 43)
2(45 46)
2(47 46)
2(48 49)
2(50 51)
2(52 51)
2(53 54)
2(55 54)
2(56 57)
2(58 59)
2(60 61)
2(62 61)
2(63 64)
2(65 66)
2(67 66)
2(68 69)
2(70 71)
2(72 71)
2(73 74)
2(75 76)
2(77 76)
2(78 79)
2(80 81)
2(82 83)
2(84 83)
2(85 86)
2(87 86)
2(88 89)
2(90 91)
2(92 93)
2(94 93)
2(95 96)
2(97 98)
2(99 98)
2(100 101)
2(102 103)
2(104 103)
2(105 106)
2(107 106)
2(108 109)
2(110 111)
2(112 111)
2(113 114)
2(115 114)
2(116 117)
2(118 117)
2(119 120)
2(121 122)
2(123 124)
2(125 124)
2(126 127)
2(128 129)
2(130 129)
2(131 132)
2(133 134)
2(135 134)
2(136 137)
2(138 139)
2(140 141)
2(142 141)
2(143 144)
2(145 146)
2(147 148)
2(149 148)
2(150 151)
2(152 153)
2(154 153)
2(155 156)
2(157 158)
2(159 158)
2(160 161)
2(162 163)
2(164 165)
2(166 1)
2(167 168)
2(167 169)
2(170 171)
2(170 172)
2(173 171)
2(173 174)
2(168 169)
2(175 176)
2(175 177)
2(178 179)
2(178 172)
2(180 177)
2(181 182)
2(183 184)
2(185 186)
2(187 188)
2(189 190)
2(191 192)
2(193 194)
2(195 196)
2(197 198)
2(199 200)
2(201 202)
2(203 204)
2(205 206)
2(207 208)
2(209 210)
2(211 212)
2(213 214)
2(215 216)
2(217 218)
2(219 220)
2(221 222)
2(223 224)
2(225 226)
2(227 228)
2(229 230)
2(231 232)
2(233 234)
2(235 236)
2(237 238)
2(239 240)
2(241 242)
2(243 244)
2(245 246)
2(247 248)
2(249 250)
2(251 252)
2(253 254)
2(255 256)
2(257 258)
2(259 260)
2(261 262)
2(263 264)
2(265 266)
2(267 268)
2(269 270)
2(271 272)
2(273 274)
2(275 276)
2(277 278)
2(279 280)
2(281 282)
2(283 284)
2(285 286)
2(287 288)
2(289 290)
2(291 292)
2(293 294)
2(295 296)
2(297 298)
2(299 300)
2(301 302)
2(303 304)
2(305 306)
2(307 308)
2(309 310)
2(311 312)
2(313 314)
2(315 316)
2(317 318)
2(319 320)
2(321 322)
2(323 324)
2(325 326)
2(327 328)
2(329 330)
2(331 332)
2(333 334)
2(335 336)
2(337 338)
2(339 340)
2(341 342)
2(343 344)
2(345 346)
2(347 348)
2(349 350)
2(351 352)
2(353 354)
2(355 356)
2(357 358)
2(359 360)
2(361 362)
2(363 364)
2(365 366)
2(367 368)
2(369 370)
2(371 372)
2(373 374)
2(375 376)
2(377 378)
2(379 380)
)

// featurePointNormals

8
(
3(167 169 172)
3(167 168 169)
3(167 168 171)
3(170 171 172)
3(173 174 169)
3(173 171 174)
3(175 176 177)
3(178 179 172)
)

// featurePointEdges

8
(
3(103 110 101)
3(100 106 101)
3(102 104 100)
3(102 108 103)
3(106 109 105)
3(104 107 105)
3(107 111 108)
3(109 111 110)
)

// regionEdges
0()


// ************************************************************************* //
