/*--------------------------------*- C++ -*----------------------------------*\
  =========                 |
  \\      /  F ield         | OpenFOAM: The Open Source CFD Toolbox
   \\    /   O peration     | Website:  https://openfoam.org
    \\  /    A nd           | Version:  dev
     \\/     M anipulation  |
\*---------------------------------------------------------------------------*/
FoamFile
{
    format      ascii;
    class       extendedFeatureEdgeMesh;
    location    "constant/extendedFeatureEdgeMesh";
    object      rectangularPotContent.extendedFeatureEdgeMesh;
}
// * * * * * * * * * * * * * * * * * * * * * * * * * * * * * * * * * * * * * //

// points
8((31.912521 31.912521 8.5918331) (-31.912521 -31.912521 8.5918331) (31.912521 -31.912521 -15.956261) (-31.912521 31.912521 -15.956261) (-31.912521 31.912521 8.5918331) (31.912521 -31.912521 8.5918331) (-31.912521 -31.912521 -15.956261) (31.912521 31.912521 -15.956261))
// edges

18
(
(5 0)
(0 4)
(1 5)
(4 1)
(2 6)
(7 2)
(3 7)
(6 3)
(1 6)
(2 5)
(7 0)
(3 4)
(4 5)
(6 7)
(6 5)
(5 7)
(7 4)
(6 4)
)

// concaveStart mixedStart nonFeatureStart
4 4 8
// internalStart flatStart openStart multipleStart
12 12 18 18
// normals

12
(
(-0 0 1)
(0 0 1)
(1 -0 0)
(0 1 -0)
(0 -1 0)
(-1 -0 0)
(0 0 -1)
(-0 0 -1)
(0 -1 -0)
(1 0 0)
(0 1 0)
(-1 0 0)
)

// normal volume types

12
(
0
0
0
0
0
0
0
0
0
0
0
0
)

// normalDirections

18
(
2(1 -1)
2(1 -1)
2(1 -1)
2(1 -1)
2(1 -1)
2(1 -1)
2(1 -1)
2(1 -1)
2(1 -1)
2(1 -1)
2(1 -1)
2(1 -1)
2(1 -1)
2(1 -1)
2(1 -1)
2(1 -1)
2(1 -1)
2(1 -1)
)

// edgeNormals

18
(
2(0 2)
2(0 3)
2(1 4)
2(1 5)
2(6 8)
2(6 9)
2(7 10)
2(7 11)
2(4 5)
2(8 9)
2(2 3)
2(10 11)
2(0 1)
2(6 7)
2(4 8)
2(2 9)
2(3 10)
2(11 5)
)

// featurePointNormals

8
(
3(0 2 3)
3(1 4 5)
3(6 8 9)
3(7 10 11)
3(0 3 5)
3(0 2 4)
3(6 8 11)
3(6 9 10)
)

// featurePointEdges

8
(
3(0 10 1)
3(2 8 3)
3(4 9 5)
3(6 11 7)
6(12 3 17 11 16 1)
6(12 2 14 9 15 0)
6(13 7 17 8 14 4)
6(13 6 16 10 15 5)
)

// regionEdges
0()


// ************************************************************************* //
