/*--------------------------------*- C++ -*----------------------------------*\
  =========                 |
  \\      /  F ield         | OpenFOAM: The Open Source CFD Toolbox
   \\    /   O peration     | Website:  https://openfoam.org
    \\  /    A nd           | Version:  12
     \\/     M anipulation  |
\*---------------------------------------------------------------------------*/
FoamFile
{
    format      ascii;
    class       extendedFeatureEdgeMesh;
    location    "constant/extendedFeatureEdgeMesh";
    object      flatPotContentNew.extendedFeatureEdgeMesh;
}
// * * * * * * * * * * * * * * * * * * * * * * * * * * * * * * * * * * * * * //

// points

60
(
(25.153982 0 50.090649)
(24.604307 5.2298069 1.5317607)
(24.604307 5.2298069 50.090649)
(25.153982 0 1.5317607)
(22.979305 10.231046 1.5317607)
(22.979305 10.231046 50.090649)
(20.349998 14.785139 1.5317607)
(20.349998 14.785139 50.090649)
(16.831299 18.693052 1.5317607)
(16.831299 18.693052 50.090649)
(12.576991 21.783987 50.090649)
(12.576991 21.783987 1.5317607)
(7.7730079 23.922857 50.090649)
(7.7730079 23.922857 1.5317607)
(2.629307 25.016186 50.090649)
(2.629307 25.016186 1.5317607)
(-2.629307 25.016186 50.090649)
(-2.629307 25.016186 1.5317607)
(-7.7730079 23.922857 50.090649)
(-7.7730079 23.922857 1.5317607)
(-12.576991 21.783987 50.090649)
(-12.576991 21.783987 1.5317607)
(-16.831299 18.693052 50.090649)
(-16.831299 18.693052 1.5317607)
(-20.349998 14.785139 1.5317607)
(-20.349998 14.785139 50.090649)
(-22.979305 10.231046 1.5317607)
(-22.979305 10.231046 50.090649)
(-24.604307 5.2298069 1.5317607)
(-24.604307 5.2298069 50.090649)
(-25.153982 0 1.5317607)
(-25.153982 0 50.090649)
(-24.604307 -5.2298069 1.5317607)
(-24.604307 -5.2298069 50.090649)
(-22.979305 -10.231046 1.5317607)
(-22.979305 -10.231046 50.090649)
(-20.349998 -14.785139 1.5317607)
(-20.349998 -14.785139 50.090649)
(-16.831299 -18.693052 1.5317607)
(-16.831299 -18.693052 50.090649)
(-12.576991 -21.783987 50.090649)
(-12.576991 -21.783987 1.5317607)
(-7.7730079 -23.922857 50.090649)
(-7.7730079 -23.922857 1.5317607)
(-2.629307 -25.016186 50.090649)
(-2.629307 -25.016186 1.5317607)
(2.629307 -25.016186 50.090649)
(2.629307 -25.016186 1.5317607)
(7.7730079 -23.922857 50.090649)
(7.7730079 -23.922857 1.5317607)
(12.576991 -21.783987 50.090649)
(12.576991 -21.783987 1.5317607)
(16.831299 -18.693052 50.090649)
(16.831299 -18.693052 1.5317607)
(20.349998 -14.785139 1.5317607)
(20.349998 -14.785139 50.090649)
(22.979305 -10.231046 1.5317607)
(22.979305 -10.231046 50.090649)
(24.604307 -5.2298069 1.5317607)
(24.604307 -5.2298069 50.090649)
)

// edges

174
(
(1 2)
(2 0)
(0 3)
(3 1)
(4 5)
(5 2)
(1 4)
(6 7)
(7 5)
(4 6)
(8 9)
(9 7)
(6 8)
(10 9)
(11 10)
(8 11)
(12 10)
(13 12)
(11 13)
(14 12)
(15 14)
(13 15)
(16 14)
(17 16)
(15 17)
(18 16)
(19 18)
(17 19)
(20 18)
(21 20)
(19 21)
(22 20)
(23 22)
(21 23)
(23 24)
(24 25)
(25 22)
(24 26)
(26 27)
(27 25)
(26 28)
(28 29)
(29 27)
(28 30)
(30 31)
(31 29)
(30 32)
(32 33)
(33 31)
(32 34)
(34 35)
(35 33)
(34 36)
(36 37)
(37 35)
(36 38)
(38 39)
(39 37)
(40 39)
(41 40)
(38 41)
(42 40)
(43 42)
(41 43)
(44 42)
(45 44)
(43 45)
(46 44)
(47 46)
(45 47)
(48 46)
(49 48)
(47 49)
(50 48)
(51 50)
(49 51)
(52 50)
(53 52)
(51 53)
(54 55)
(55 52)
(53 54)
(56 57)
(57 55)
(54 56)
(58 59)
(59 57)
(56 58)
(0 59)
(58 3)
(0 1)
(2 4)
(5 6)
(8 10)
(11 12)
(26 25)
(28 27)
(30 29)
(38 40)
(41 42)
(7 8)
(13 14)
(15 16)
(17 18)
(19 20)
(21 22)
(24 22)
(32 31)
(34 33)
(36 35)
(38 37)
(43 44)
(45 46)
(47 48)
(49 50)
(51 52)
(52 54)
(55 56)
(57 58)
(59 3)
(58 1)
(56 1)
(56 4)
(54 4)
(54 6)
(53 6)
(53 8)
(51 8)
(51 11)
(49 11)
(49 13)
(47 13)
(47 15)
(45 15)
(45 17)
(43 17)
(43 19)
(41 19)
(41 21)
(38 21)
(38 23)
(36 23)
(36 24)
(34 24)
(34 26)
(32 26)
(32 28)
(2 59)
(5 59)
(5 57)
(7 57)
(7 55)
(9 55)
(9 52)
(10 52)
(10 50)
(12 50)
(12 48)
(14 48)
(14 46)
(16 46)
(16 44)
(18 44)
(18 42)
(20 42)
(20 40)
(22 40)
(22 39)
(25 39)
(25 37)
(27 37)
(27 35)
(29 35)
(29 33)
)

// concaveStart mixedStart nonFeatureStart
0 0 60
// internalStart flatStart openStart multipleStart
90 90 174 174
// normals

116
(
(0.99452189 0.10452849 0)
(0.99452189 0.10452849 0)
(0.95105647 0.30901715 0)
(0 0 1)
(0.99452189 -0.10452849 0)
(0 0 -1)
(0.95105647 0.30901715 0)
(0.86602542 0.49999997 0)
(0 0 1)
(0 0 -1)
(0.86602542 0.49999997 0)
(0.74314494 0.66913048 0)
(0 0 1)
(0 0 -1)
(0.74314494 0.66913048 0)
(0.58778516 0.80901706 -0)
(0 0 1)
(0 0 -1)
(0.58778516 0.80901706 0)
(0 0 1)
(0.4067365 0.91354552 -0)
(0 0 -1)
(0.4067365 0.91354552 0)
(0 0 1)
(0.20791189 0.97814756 -0)
(0 0 -1)
(0 0 1)
(0.20791189 0.97814756 0)
(0 1 -0)
(0 0 -1)
(-0 0 1)
(0 1 0)
(-0.20791189 0.97814756 0)
(0 0 -1)
(-0 0 1)
(-0.20791189 0.97814756 0)
(-0.4067365 0.91354552 0)
(0 0 -1)
(-0 0 1)
(-0.4067365 0.91354552 0)
(-0.58778516 0.80901706 0)
(0 0 -1)
(-0 0 1)
(-0.58778516 0.80901706 0)
(-0.74314494 0.66913048 0)
(0 0 -1)
(0 0 -1)
(-0.74314494 0.66913048 0)
(-0.86602542 0.49999997 0)
(-0 0 1)
(-0.86602542 0.49999997 0)
(0 0 -1)
(-0.95105647 0.30901715 0)
(-0 0 1)
(-0.95105647 0.30901715 0)
(0 0 -1)
(-0.99452189 0.10452849 0)
(-0 0 1)
(-0.99452189 0.10452849 0)
(0 -0 -1)
(-0.99452189 -0.10452849 0)
(0 -0 1)
(-0.99452189 -0.10452849 0)
(-0.95105647 -0.30901715 0)
(0 0 -1)
(-0.95105647 -0.30901715 0)
(-0.86602542 -0.49999997 0)
(0 0 1)
(0 0 -1)
(-0.86602542 -0.49999997 0)
(-0.74314494 -0.66913048 0)
(0 0 1)
(0 0 -1)
(-0.74314494 -0.66913048 0)
(-0.58778516 -0.80901706 0)
(0 0 1)
(-0.58778516 -0.80901706 -0)
(0 0 1)
(-0.4067365 -0.91354552 0)
(0 0 -1)
(-0.4067365 -0.91354552 -0)
(0 0 1)
(-0.20791189 -0.97814756 0)
(0 0 -1)
(0 0 1)
(-0.20791189 -0.97814756 -0)
(0 -1 0)
(0 0 -1)
(0 0 1)
(0 -1 -0)
(0.20791189 -0.97814756 0)
(0 0 -1)
(0 0 1)
(0.20791189 -0.97814756 0)
(0.4067365 -0.91354552 0)
(0 0 -1)
(0 0 1)
(0.4067365 -0.91354552 0)
(0.58778516 -0.80901706 0)
(0 0 -1)
(0 0 1)
(0.58778516 -0.80901706 0)
(0.74314494 -0.66913048 0)
(0 0 -1)
(0.74314494 -0.66913048 0)
(0.86602542 -0.49999997 0)
(0 0 1)
(0 0 -1)
(0.86602542 -0.49999997 0)
(0.95105647 -0.30901715 0)
(0 0 1)
(0 0 -1)
(0.95105647 -0.30901715 0)
(0.99452189 -0.10452849 0)
(0 0 1)
(0 0 -1)
)

// normal volume types

116
(
0
0
0
0
0
0
0
0
0
0
0
0
0
0
0
0
0
0
0
0
0
0
0
0
0
0
0
0
0
0
0
0
0
0
0
0
0
0
0
0
0
0
0
0
0
0
0
0
0
0
0
0
0
0
0
0
0
0
0
0
0
0
0
0
0
0
0
0
0
0
0
0
0
0
0
0
0
0
0
0
0
0
0
0
0
0
0
0
0
0
0
0
0
0
0
0
0
0
0
0
0
0
0
0
0
0
0
0
0
0
0
0
0
0
0
0
)

// normalDirections

174
(
2(1 -1)
2(1 -1)
2(1 -1)
2(1 -1)
2(1 -1)
2(1 -1)
2(1 -1)
2(1 -1)
2(1 -1)
2(1 -1)
2(1 -1)
2(1 -1)
2(1 -1)
2(1 -1)
2(1 -1)
2(1 -1)
2(1 -1)
2(1 -1)
2(1 -1)
2(1 -1)
2(1 -1)
2(1 -1)
2(1 -1)
2(1 -1)
2(1 -1)
2(1 -1)
2(1 -1)
2(1 -1)
2(1 -1)
2(1 -1)
2(1 -1)
2(1 -1)
2(1 -1)
2(1 -1)
2(1 -1)
2(1 -1)
2(1 -1)
2(1 -1)
2(1 -1)
2(1 -1)
2(1 -1)
2(1 -1)
2(1 -1)
2(1 -1)
2(1 -1)
2(1 -1)
2(1 -1)
2(1 -1)
2(1 -1)
2(1 -1)
2(1 -1)
2(1 -1)
2(1 -1)
2(1 -1)
2(1 -1)
2(1 -1)
2(1 -1)
2(1 -1)
2(1 -1)
2(1 -1)
2(1 -1)
2(1 -1)
2(1 -1)
2(1 -1)
2(1 -1)
2(1 -1)
2(1 -1)
2(1 -1)
2(1 -1)
2(1 -1)
2(1 -1)
2(1 -1)
2(1 -1)
2(1 -1)
2(1 -1)
2(1 -1)
2(1 -1)
2(1 -1)
2(1 -1)
2(1 -1)
2(1 -1)
2(1 -1)
2(1 -1)
2(1 -1)
2(1 -1)
2(1 -1)
2(1 -1)
2(1 -1)
2(1 -1)
2(1 -1)
2(1 -1)
2(1 -1)
2(1 -1)
2(1 -1)
2(1 -1)
2(1 -1)
2(1 -1)
2(1 -1)
2(1 -1)
2(1 -1)
2(1 -1)
2(1 -1)
2(1 -1)
2(1 -1)
2(1 -1)
2(1 -1)
2(1 -1)
2(1 -1)
2(1 -1)
2(1 -1)
2(1 -1)
2(1 -1)
2(1 -1)
2(1 -1)
2(1 -1)
2(1 -1)
2(1 -1)
2(1 -1)
2(1 -1)
2(1 -1)
2(1 -1)
2(1 -1)
2(1 -1)
2(1 -1)
2(1 -1)
2(1 -1)
2(1 -1)
2(1 -1)
2(1 -1)
2(1 -1)
2(1 -1)
2(1 -1)
2(1 -1)
2(1 -1)
2(1 -1)
2(1 -1)
2(1 -1)
2(1 -1)
2(1 -1)
2(1 -1)
2(1 -1)
2(1 -1)
2(1 -1)
2(1 -1)
2(1 -1)
2(1 -1)
2(1 -1)
2(1 -1)
2(1 -1)
2(1 -1)
2(1 -1)
2(1 -1)
2(1 -1)
2(1 -1)
2(1 -1)
2(1 -1)
2(1 -1)
2(1 -1)
2(1 -1)
2(1 -1)
2(1 -1)
2(1 -1)
2(1 -1)
2(1 -1)
2(1 -1)
2(1 -1)
2(1 -1)
2(1 -1)
2(1 -1)
2(1 -1)
2(1 -1)
2(1 -1)
2(1 -1)
2(1 -1)
)

// edgeNormals

174
(
2(0 2)
2(0 3)
2(1 4)
2(1 5)
2(6 7)
2(6 8)
2(2 9)
2(10 11)
2(10 12)
2(7 13)
2(14 15)
2(14 16)
2(11 17)
2(15 19)
2(18 20)
2(18 21)
2(20 23)
2(22 24)
2(22 25)
2(24 26)
2(27 28)
2(27 29)
2(28 30)
2(31 32)
2(31 33)
2(32 34)
2(35 36)
2(35 37)
2(36 38)
2(39 40)
2(39 41)
2(40 42)
2(43 44)
2(43 45)
2(44 46)
2(47 48)
2(47 49)
2(48 51)
2(50 52)
2(50 53)
2(52 55)
2(54 56)
2(54 57)
2(56 59)
2(58 60)
2(58 61)
2(60 59)
2(62 63)
2(62 61)
2(63 64)
2(65 66)
2(65 67)
2(66 68)
2(69 70)
2(69 71)
2(70 72)
2(73 74)
2(73 75)
2(74 77)
2(76 78)
2(76 79)
2(78 81)
2(80 82)
2(80 83)
2(82 84)
2(85 86)
2(85 87)
2(86 88)
2(89 90)
2(89 91)
2(90 92)
2(93 94)
2(93 95)
2(94 96)
2(97 98)
2(97 99)
2(98 100)
2(101 102)
2(101 103)
2(104 105)
2(104 106)
2(102 107)
2(108 109)
2(108 110)
2(105 111)
2(112 113)
2(112 114)
2(109 115)
2(4 3)
2(113 5)
2(0 1)
2(6 2)
2(10 7)
2(15 18)
2(20 22)
2(48 50)
2(52 54)
2(56 58)
2(74 76)
2(78 80)
2(14 11)
2(24 27)
2(28 31)
2(32 35)
2(36 39)
2(40 43)
2(44 47)
2(60 62)
2(63 65)
2(66 69)
2(70 73)
2(82 85)
2(86 89)
2(90 93)
2(94 97)
2(98 101)
2(104 102)
2(108 105)
2(112 109)
2(4 113)
2(5 115)
2(115 9)
2(9 111)
2(111 13)
2(13 107)
2(107 17)
2(17 103)
2(103 21)
2(21 99)
2(99 25)
2(25 95)
2(95 29)
2(29 91)
2(91 33)
2(33 87)
2(87 37)
2(37 83)
2(83 41)
2(41 79)
2(79 45)
2(45 72)
2(72 46)
2(46 68)
2(68 51)
2(51 64)
2(64 55)
2(55 59)
2(3 8)
2(8 114)
2(114 12)
2(12 110)
2(110 16)
2(16 106)
2(106 19)
2(19 100)
2(100 23)
2(23 96)
2(96 26)
2(26 92)
2(92 30)
2(30 88)
2(88 34)
2(34 84)
2(84 38)
2(38 81)
2(81 42)
2(42 77)
2(77 49)
2(49 75)
2(75 53)
2(53 71)
2(71 57)
2(57 67)
2(67 61)
)

// featurePointNormals

60
(
3(0 3 4)
3(0 2 5)
3(0 2 3)
3(1 4 5)
3(6 7 9)
3(6 7 8)
3(10 11 13)
3(10 11 12)
3(14 15 17)
3(14 15 16)
3(15 19 20)
3(18 20 21)
3(20 23 24)
3(22 24 25)
3(24 26 28)
3(27 28 29)
3(28 30 32)
3(31 32 33)
3(32 34 36)
3(35 36 37)
3(36 38 40)
3(39 40 41)
3(40 42 44)
3(43 44 45)
3(44 46 48)
3(47 48 49)
3(48 51 52)
3(50 52 53)
3(52 55 56)
3(54 56 57)
3(56 59 60)
3(58 60 61)
3(60 59 63)
3(62 63 61)
3(63 64 66)
3(65 66 67)
3(66 68 70)
3(69 70 71)
3(70 72 74)
3(73 74 75)
3(74 77 78)
3(76 78 79)
3(78 81 82)
3(80 82 83)
3(82 84 86)
3(85 86 87)
3(86 88 90)
3(89 90 91)
3(90 92 94)
3(93 94 95)
3(94 96 98)
3(97 98 99)
3(98 100 102)
3(101 102 103)
3(104 105 107)
3(104 105 106)
3(108 109 111)
3(108 109 110)
3(112 113 115)
3(112 113 114)
)

// featurePointEdges

60
(
4(90 2 88 1)
6(90 3 120 121 6 0)
5(0 91 5 147 1)
4(2 119 89 3)
6(91 6 122 123 9 4)
6(4 92 8 149 148 5)
6(92 9 124 125 12 7)
6(7 100 11 151 150 8)
7(100 12 126 127 15 93 10)
5(10 13 153 152 11)
6(93 14 16 155 154 13)
6(14 94 18 129 128 15)
6(94 17 19 157 156 16)
6(17 101 21 131 130 18)
6(101 20 22 159 158 19)
6(20 102 24 133 132 21)
6(102 23 25 161 160 22)
6(23 103 27 135 134 24)
6(103 26 28 163 162 25)
6(26 104 30 137 136 27)
6(104 29 31 165 164 28)
6(29 105 33 139 138 30)
7(105 32 106 36 167 166 31)
5(32 34 141 140 33)
6(106 35 37 143 142 34)
6(35 95 39 169 168 36)
6(95 38 40 145 144 37)
6(38 96 42 171 170 39)
5(96 41 43 146 40)
6(41 97 45 173 172 42)
4(97 44 46 43)
4(44 107 48 45)
6(107 47 49 145 146 46)
5(47 108 51 173 48)
6(108 50 52 143 144 49)
6(50 109 54 171 172 51)
6(109 53 55 141 142 52)
6(53 110 57 169 170 54)
7(110 56 98 60 139 140 55)
5(56 58 167 168 57)
6(98 59 61 165 166 58)
6(59 99 63 137 138 60)
6(99 62 64 163 164 61)
6(62 111 66 135 136 63)
6(111 65 67 161 162 64)
6(65 112 69 133 134 66)
6(112 68 70 159 160 67)
6(68 113 72 131 132 69)
6(113 71 73 157 158 70)
6(71 114 75 129 130 72)
6(114 74 76 155 156 73)
6(74 115 78 127 128 75)
7(115 77 116 80 153 154 76)
5(77 81 125 126 78)
6(116 81 124 123 84 79)
6(79 117 83 151 152 80)
6(117 84 122 121 87 82)
6(82 118 86 149 150 83)
5(118 87 120 89 85)
6(85 119 88 147 148 86)
)

// regionEdges
0()


// ************************************************************************* //
