/*--------------------------------*- C++ -*----------------------------------*\
  =========                 |
  \\      /  F ield         | OpenFOAM: The Open Source CFD Toolbox
   \\    /   O peration     | Website:  https://openfoam.org
    \\  /    A nd           | Version:  dev
     \\/     M anipulation  |
\*---------------------------------------------------------------------------*/
FoamFile
{
    format      ascii;
    class       polyBoundaryMesh;
    location    "constant/air/polyMesh";
    object      boundary;
}
// * * * * * * * * * * * * * * * * * * * * * * * * * * * * * * * * * * * * * //

13
(
    inlet
    {
        type            patch;
        nFaces          0;
        startFace       53235;
    }
    outlet
    {
        type            patch;
        nFaces          0;
        startFace       53235;
    }
    walls
    {
        type            wall;
        inGroups        List<word> 1(wall);
        nFaces          186;
        startFace       53235;
    }
    air_to_water
    {
        type            mappedWall;
        inGroups        List<word> 
2
(
wall
mapped
)
;
        nFaces          1090;
        startFace       53421;
        neighbourRegion water;
        neighbourPatch  water_to_air;
        transformType   none;
    }
    air_to_solid
    {
        type            mappedWall;
        inGroups        List<word> 
2
(
wall
mapped
)
;
        nFaces          5373;
        startFace       54511;
        neighbourRegion solid;
        neighbourPatch  solid_to_air;
        transformType   none;
    }
    procBoundary9to1
    {
        type            processor;
        inGroups        List<word> 1(processor);
        nFaces          10;
        startFace       59884;
        matchTolerance  0.0001;
        myProcNo        9;
        neighbProcNo    1;
    }
    procBoundary9to2
    {
        type            processor;
        inGroups        List<word> 1(processor);
        nFaces          525;
        startFace       59894;
        matchTolerance  0.0001;
        myProcNo        9;
        neighbProcNo    2;
    }
    procBoundary9to3
    {
        type            processor;
        inGroups        List<word> 1(processor);
        nFaces          12;
        startFace       60419;
        matchTolerance  0.0001;
        myProcNo        9;
        neighbProcNo    3;
    }
    procBoundary9to4
    {
        type            processor;
        inGroups        List<word> 1(processor);
        nFaces          38;
        startFace       60431;
        matchTolerance  0.0001;
        myProcNo        9;
        neighbProcNo    4;
    }
    procBoundary9to5
    {
        type            processor;
        inGroups        List<word> 1(processor);
        nFaces          135;
        startFace       60469;
        matchTolerance  0.0001;
        myProcNo        9;
        neighbProcNo    5;
    }
    procBoundary9to6
    {
        type            processor;
        inGroups        List<word> 1(processor);
        nFaces          385;
        startFace       60604;
        matchTolerance  0.0001;
        myProcNo        9;
        neighbProcNo    6;
    }
    procBoundary9to7
    {
        type            processor;
        inGroups        List<word> 1(processor);
        nFaces          94;
        startFace       60989;
        matchTolerance  0.0001;
        myProcNo        9;
        neighbProcNo    7;
    }
    procBoundary9to10
    {
        type            processor;
        inGroups        List<word> 1(processor);
        nFaces          387;
        startFace       61083;
        matchTolerance  0.0001;
        myProcNo        9;
        neighbProcNo    10;
    }
)

// ************************************************************************* //
