/*--------------------------------*- C++ -*----------------------------------*\
  =========                 |
  \\      /  F ield         | OpenFOAM: The Open Source CFD Toolbox
   \\    /   O peration     | Website:  https://openfoam.org
    \\  /    A nd           | Version:  12
     \\/     M anipulation  |
\*---------------------------------------------------------------------------*/
FoamFile
{
    format      ascii;
    class       extendedFeatureEdgeMesh;
    location    "constant/extendedFeatureEdgeMesh";
    object      pot_round.extendedFeatureEdgeMesh;
}
// * * * * * * * * * * * * * * * * * * * * * * * * * * * * * * * * * * * * * //

// points

2342
(
(-10.204504 31.406235 21.23171)
(-10.204504 -31.406235 21.23171)
(-28.604965 6.0801725 14.687238)
(-24.18746 0 9.0713634)
(-28.604965 -6.0801725 14.687238)
(24.18746 0 9.0713634)
(-22.096344 9.8379259 9.0713634)
(-22.096344 -9.8379259 9.0713634)
(28.604965 6.0801725 14.687238)
(10.204504 -31.406235 21.23171)
(24.18746 -26.862896 35.934261)
(-24.18746 26.862896 35.934261)
(33.022469 0 21.23171)
(22.096344 9.8379259 9.0713634)
(10.204504 31.406235 21.23171)
(22.096344 -9.8379259 9.0713634)
(28.604965 -6.0801725 14.687238)
(-2.5282774 24.054958 9.0713634)
(-33.022469 0 21.23171)
(31.957228 0 21.705986)
(-27.682224 -20.112312 28.661188)
(-18.936838 13.758418 9.9379082)
(27.682224 -5.884038 15.372625)
(9.8753262 -30.393129 21.705986)
(-18.936838 -13.758418 9.9379082)
(-9.8753262 -30.393129 21.705986)
(-18.936838 21.03149 15.372625)
(27.682224 -20.112312 28.661188)
(18.936838 -13.758418 9.9379082)
(-18.936838 -21.03149 15.372625)
(-31.957228 0 21.705986)
(9.8753262 30.393129 21.705986)
(27.682224 5.884038 15.372625)
(27.682224 20.112312 28.661188)
(-27.682224 -5.884038 15.372625)
(18.936838 -21.03149 15.372625)
(18.936838 21.03149 15.372625)
(-27.682224 5.884038 15.372625)
(18.936838 13.758418 9.9379082)
(-9.8753262 30.393129 21.705986)
(-27.682224 20.112312 28.661188)
(16.18457 17.974785 9.0713634)
(14.622008 25.326061 14.687238)
(19.568066 21.73254 14.687238)
(-14.316745 32.930336 35.522217)
(-18.073795 31.304733 35.934261)
(-14.36285 32.956955 35.934261)
(-14.295033 32.917797 35.328171)
(-14.166469 32.929337 34.928764)
(-14.108468 32.934544 34.748569)
(-13.9048 32.983833 34.386833)
(-13.811313 33.006458 34.220791)
(-17.678841 30.620649 28.418753)
(-13.547357 33.089329 33.917965)
(-13.416552 33.130394 33.767899)
(-13.192583 33.210793 33.599037)
(-32.30085 -14.381264 28.418753)
(-35.357681 -7.5155067 35.934261)
(-34.58503 -7.3512745 28.418753)
(33.022469 -14.70255 35.934261)
(29.244017 -21.247021 35.934261)
(32.30085 -14.381264 28.418753)
(22.096344 -24.540478 21.23171)
(19.568066 -21.73254 14.687238)
(26.715738 -19.41012 21.23171)
(-10.926124 33.627151 28.418753)
(-3.4517879 32.841568 21.23171)
(12.09373 -20.946955 9.0713634)
(9.0368977 -15.652367 4.6295261)
(12.09373 -13.431448 4.6295261)
(23.658905 17.189201 14.687238)
(26.715738 19.41012 21.23171)
(-28.604965 20.782722 28.418753)
(-29.244017 21.247021 35.934261)
(-23.658905 26.275877 28.418753)
(-3.4517879 10.62351 1.5558559)
(-5.5851097 17.189201 4.6295261)
(-1.1676054 11.109029 1.5558559)
(-3.4517879 -32.841568 21.23171)
(-10.926124 -33.627151 28.418753)
(16.18457 -17.974785 9.0713634)
(19.568066 -14.217032 9.0713634)
(-23.658905 5.0288553 9.0713634)
(-29.244017 0 14.687238)
(-18.073795 0 4.6295261)
(-26.715738 -11.894612 14.687238)
(-32.30085 -6.865757 21.23171)
(35.357681 0 28.418753)
(34.58503 7.3512745 28.418753)
(36.147591 0 35.934261)
(32.30085 14.381264 28.418753)
(29.244017 21.247021 35.934261)
(33.022469 14.70255 35.934261)
(23.658905 26.275877 28.418753)
(16.511234 28.598297 21.23171)
(17.678841 30.620649 28.418753)
(22.096344 24.540478 21.23171)
(23.658905 5.0288553 9.0713634)
(29.244017 0 14.687238)
(-16.511234 7.3512745 4.6295261)
(23.658905 -5.0288553 9.0713634)
(17.678841 -3.7577534 4.6295261)
(18.073795 0 4.6295261)
(-23.658905 -5.0288553 9.0713634)
(-16.511234 -7.3512745 4.6295261)
(-12.132168 -33.625919 33.100872)
(-12.40674 -33.510643 33.161808)
(-11.835823 -33.750336 33.035103)
(-12.719124 -33.38813 33.306622)
(-17.678841 -30.620649 28.418753)
(-12.94144 -33.300941 33.409683)
(-13.192584 -33.210793 33.599037)
(-11.253638 -34.009541 33.035103)
(-11.077335 -34.092533 33.074429)
(3.4517879 -10.62351 1.5558559)
(0.39495564 -3.7577534 -0.015312035)
(1.1676054 -3.5935211 -0.015312035)
(17.678841 3.7577534 4.6295261)
(10.204504 4.5433378 1.5558559)
(16.511234 7.3512745 4.6295261)
(12.09373 13.431448 4.6295261)
(5.5851097 9.6736946 1.5558559)
(9.0368977 15.652367 4.6295261)
(35.357681 7.5155067 35.934261)
(28.604965 20.782722 28.418753)
(24.18746 26.862896 35.934261)
(-16.18457 17.974785 9.0713634)
(-19.568066 14.217032 9.0713634)
(-19.568066 21.73254 14.687238)
(32.30085 6.865757 21.23171)
(3.4517879 -32.841568 21.23171)
(9.0368977 -27.812714 14.687238)
(-7.4743357 -23.003643 9.0713634)
(-9.0368977 -15.652367 4.6295261)
(-5.5851097 -17.189201 4.6295261)
(-2.5282774 -2.8079367 -0.015312035)
(-9.0368977 -6.56569 1.5558559)
(-3.0568314 -2.2209177 -0.015312035)
(-3.0568314 -29.083815 14.687238)
(3.0568314 -29.083815 14.687238)
(23.658905 -26.275877 28.418753)
(30.167526 -13.431448 21.23171)
(-35.357681 0 28.418753)
(-3.4517879 -10.62351 1.5558559)
(-5.5851097 -9.6736946 1.5558559)
(-1.1676054 -3.5935211 -0.015312035)
(-26.715738 11.894612 14.687238)
(-32.30085 6.865757 21.23171)
(-30.167526 13.431448 21.23171)
(-14.622008 -25.326061 14.687238)
(-19.568066 -21.73254 14.687238)
(-16.18457 -17.974785 9.0713634)
(-17.678841 -3.7577534 4.6295261)
(-11.17022 0 1.5558559)
(-1.1676054 3.5935211 -0.015312035)
(-5.5851097 9.6736946 1.5558559)
(5.5851097 -9.6736946 1.5558559)
(5.5851097 17.189201 4.6295261)
(1.889226 17.974785 4.6295261)
(7.4743357 23.003643 9.0713634)
(7.4743357 8.3010912 1.5558559)
(-14.622008 25.326061 14.687238)
(-16.511234 28.598297 21.23171)
(-9.0368977 27.812714 14.687238)
(9.0368977 27.812714 14.687238)
(3.0568314 29.083815 14.687238)
(3.4517879 32.841568 21.23171)
(18.073795 31.304733 35.934261)
(10.926124 33.627151 28.418753)
(-3.6958838 35.163986 28.418753)
(3.6958838 35.163986 28.418753)
(14.340627 32.944122 35.735653)
(14.36285 32.956955 35.934261)
(14.295033 32.917797 35.328171)
(14.235747 32.923119 35.14399)
(14.108468 32.934544 34.748569)
(14.013267 32.957584 34.579483)
(13.811313 33.006458 34.220791)
(13.678402 33.048183 34.068306)
(13.416552 33.130394 33.767899)
(13.24169 33.193165 33.636059)
(13.192584 33.210793 33.599037)
(5.5851097 -17.189201 4.6295261)
(1.1676054 -11.109029 1.5558559)
(26.715738 -11.894612 14.687238)
(32.30085 -6.865757 21.23171)
(19.568066 14.217032 9.0713634)
(26.715738 11.894612 14.687238)
(30.167526 13.431448 21.23171)
(14.622008 -10.62351 4.6295261)
(16.511234 -7.3512745 4.6295261)
(11.17022 0 1.5558559)
(3.6958838 -0.7855835 -0.015312035)
(3.7784519 0 -0.015312035)
(10.204504 -4.5433378 1.5558559)
(28.604965 -20.782722 28.418753)
(17.678841 -30.620649 28.418753)
(10.926124 -33.627151 28.418753)
(16.511234 -28.598297 21.23171)
(3.6958838 -35.163986 28.418753)
(-3.6958838 -35.163986 28.418753)
(18.073795 -31.304733 35.934261)
(14.316745 -32.930336 35.522217)
(14.36285 -32.956955 35.934261)
(14.295033 -32.917797 35.328171)
(14.166469 -32.929337 34.928764)
(14.108468 -32.934544 34.748569)
(13.9048 -32.983833 34.386833)
(13.811313 -33.006458 34.220791)
(13.547357 -33.089329 33.917965)
(13.416552 -33.130394 33.767899)
(13.192583 -33.210793 33.599037)
(-19.568066 -14.217032 9.0713634)
(-3.0568314 2.2209177 -0.015312035)
(-9.0368977 6.56569 1.5558559)
(-2.5282774 2.8079367 -0.015312035)
(-23.658905 -17.189201 14.687238)
(-30.167526 -13.431448 21.23171)
(-14.622008 -10.62351 4.6295261)
(-10.204504 -4.5433378 1.5558559)
(-17.678841 3.7577534 4.6295261)
(-33.022469 -14.70255 35.934261)
(-29.244017 -21.247021 35.934261)
(-36.147591 0 35.934261)
(14.622008 10.62351 4.6295261)
(-12.09373 13.431448 4.6295261)
(-12.09373 20.946955 9.0713634)
(2.5282774 24.054958 9.0713634)
(12.09373 20.946955 9.0713634)
(10.303136 34.284672 33.33247)
(10.676194 34.187138 33.161808)
(10.883989 34.138134 33.116547)
(11.077335 34.092533 33.074429)
(10.134344 34.3288 33.409683)
(9.77981 34.432533 33.67519)
(9.6560163 34.468754 33.767899)
(9.3572989 34.568951 34.111351)
(-10.926124 -2.3224192 1.5558559)
(-3.4517879 -1.5368347 -0.015312035)
(23.658905 -17.189201 14.687238)
(34.58503 -7.3512745 28.418753)
(-12.09373 -20.946955 9.0713634)
(-12.09373 -13.431448 4.6295261)
(7.4743357 -23.003643 9.0713634)
(14.622008 -25.326061 14.687238)
(1.889226 -17.974785 4.6295261)
(11.253638 -34.009541 33.035103)
(11.835823 -33.750336 33.035103)
(11.077335 -34.092533 33.074429)
(12.622934 -33.425854 33.262032)
(12.40674 -33.510643 33.161808)
(12.098843 -33.639908 33.093475)
(12.94144 -33.300941 33.409683)
(13.113061 -33.239338 33.539078)
(-1.1676054 -11.109029 1.5558559)
(-32.30085 14.381264 28.418753)
(-35.357681 7.5155067 35.934261)
(-33.022469 14.70255 35.934261)
(-26.715738 19.41012 21.23171)
(-34.58503 7.3512745 28.418753)
(-22.096344 24.540478 21.23171)
(-23.658905 17.189201 14.687238)
(-26.715738 -19.41012 21.23171)
(-16.511234 -28.598297 21.23171)
(-3.0568314 29.083815 14.687238)
(8.7390881 34.891991 35.904625)
(3.7784519 35.94957 35.934261)
(8.7363663 34.895737 35.934261)
(8.7920189 34.819138 35.328171)
(8.8083277 34.80999 35.275017)
(8.9698591 34.719398 34.748569)
(9.0120592 34.702286 34.672363)
(9.2621155 34.600876 34.220791)
(9.3415909 34.574219 34.129414)
(-1.889226 3.2722349 -0.015312035)
(-7.4743357 8.3010912 1.5558559)
(-10.204504 4.5433378 1.5558559)
(-14.622008 10.62351 4.6295261)
(-9.0368977 15.652367 4.6295261)
(-3.6958838 0.7855835 -0.015312035)
(-10.926124 2.3224192 1.5558559)
(-7.4743357 23.003643 9.0713634)
(-1.889226 17.974785 4.6295261)
(1.1676054 11.109029 1.5558559)
(-3.7784519 35.94957 35.934261)
(-8.7872486 34.825703 35.380116)
(-8.7363663 34.895737 35.934261)
(-8.7920189 34.819138 35.328171)
(-8.9457197 34.732937 34.827244)
(-8.9698591 34.719398 34.748569)
(-9.2061872 34.623558 34.321789)
(-9.2621155 34.600876 34.220791)
(-9.3572989 34.568951 34.111351)
(12.132168 33.625919 33.100872)
(12.40674 33.510643 33.161808)
(11.835823 33.750336 33.035103)
(12.719124 33.38813 33.306622)
(12.94144 33.300941 33.409683)
(11.253638 34.009541 33.035103)
(-8.7390881 -34.891991 35.904625)
(-3.7784519 -35.94957 35.934261)
(-8.7363663 -34.895737 35.934261)
(-8.7920189 -34.819138 35.328171)
(-8.8083277 -34.80999 35.275017)
(-8.9698591 -34.719398 34.748569)
(-9.0120592 -34.702286 34.672363)
(-9.2621155 -34.600876 34.220791)
(-9.3415909 -34.574219 34.129414)
(-9.3572989 -34.568951 34.111351)
(-9.0368977 -27.812714 14.687238)
(-7.4743357 -8.3010912 1.5558559)
(35.357681 -7.5155067 35.934261)
(3.6958838 0.7855835 -0.015312035)
(10.926124 2.3224192 1.5558559)
(7.4743357 -8.3010912 1.5558559)
(2.5282774 -2.8079367 -0.015312035)
(9.0368977 -6.56569 1.5558559)
(3.4517879 1.5368347 -0.015312035)
(3.0568314 2.2209177 -0.015312035)
(9.0368977 6.56569 1.5558559)
(-24.18746 -26.862896 35.934261)
(-23.658905 -26.275877 28.418753)
(2.5282774 -24.054958 9.0713634)
(-0.39495564 3.7577534 -0.015312035)
(0.39495564 3.7577534 -0.015312035)
(1.889226 -3.2722349 -0.015312035)
(-3.4517879 1.5368347 -0.015312035)
(-0.39495564 -3.7577534 -0.015312035)
(3.4517879 10.62351 1.5558559)
(10.926124 -2.3224192 1.5558559)
(3.4517879 -1.5368347 -0.015312035)
(-9.9897127 34.371117 33.517998)
(-9.6560163 34.468754 33.767899)
(-10.485981 34.236866 33.248825)
(-10.134344 34.3288 33.409683)
(-9.5582552 34.501545 33.880299)
(-10.676194 34.187138 33.161808)
(-11.029647 34.103783 33.084816)
(-11.077335 34.092533 33.074429)
(-11.253638 34.009541 33.035103)
(-11.835823 33.750336 33.035103)
(-12.622934 33.425854 33.262032)
(-12.40674 33.510643 33.161808)
(-12.098843 33.639908 33.093475)
(-12.94144 33.300941 33.409683)
(-13.113061 33.239338 33.539078)
(-2.5282774 -24.054958 9.0713634)
(-1.889226 -17.974785 4.6295261)
(-10.303136 -34.284672 33.33247)
(-10.676194 -34.187138 33.161808)
(-10.883989 -34.138134 33.116547)
(-10.134344 -34.3288 33.409683)
(-9.77981 -34.432533 33.67519)
(-9.6560163 -34.468754 33.767899)
(1.889226 3.2722349 -0.015312035)
(-3.6958838 -0.7855835 -0.015312035)
(-3.7784519 0 -0.015312035)
(1.1676054 3.5935211 -0.015312035)
(2.5282774 2.8079367 -0.015312035)
(3.0568314 -2.2209177 -0.015312035)
(-28.604965 -20.782722 28.418753)
(3.7784519 -35.94957 35.934261)
(-1.889226 -3.2722349 -0.015312035)
(-18.073795 -31.304733 35.934261)
(-14.340627 -32.944122 35.735653)
(-14.36285 -32.956955 35.934261)
(-14.295033 -32.917797 35.328171)
(-14.235747 -32.923119 35.14399)
(-14.108468 -32.934544 34.748569)
(-14.013267 -32.957584 34.579483)
(-13.811313 -33.006458 34.220791)
(-13.678402 -33.048183 34.068306)
(-13.416552 -33.130394 33.767899)
(-13.24169 -33.193165 33.636059)
(9.9897127 -34.371117 33.517998)
(9.6560163 -34.468754 33.767899)
(10.485981 -34.236866 33.248825)
(10.134344 -34.3288 33.409683)
(9.5582552 -34.501545 33.880299)
(9.3572989 -34.568951 34.111351)
(10.676194 -34.187138 33.161808)
(11.029647 -34.103783 33.084816)
(8.7872486 -34.825703 35.380116)
(8.7363663 -34.895737 35.934261)
(8.7920189 -34.819138 35.328171)
(8.9457197 -34.732937 34.827244)
(8.9698591 -34.719398 34.748569)
(9.2061872 -34.623558 34.321789)
(9.2621155 -34.600876 34.220791)
(-22.096344 -24.540478 21.23171)
(18.073795 31.304733 46.428722)
(24.18746 26.862896 46.428722)
(-29.244017 21.247021 46.428722)
(-33.022469 14.70255 46.428722)
(35.357681 -7.5155067 46.428722)
(36.147591 0 46.428722)
(24.18746 -26.862896 46.428722)
(18.073795 -31.304733 46.428722)
(33.022469 14.70255 46.428722)
(29.244017 21.247021 46.428722)
(-35.357681 7.5155067 46.428722)
(-36.147591 0 46.428722)
(35.357681 7.5155067 46.428722)
(-33.022469 -14.70255 46.428722)
(-29.244017 -21.247021 46.428722)
(-24.18746 -26.862896 46.428722)
(3.7784519 -35.94957 46.428722)
(-3.7784519 -35.94957 46.428722)
(11.86913 -34.06723 38.83342)
(11.17022 -34.378403 46.428722)
(11.286945 -34.326435 38.83342)
(11.17022 -34.378403 38.807446)
(12.089928 -33.968922 38.78429)
(12.438592 -33.813686 38.706711)
(12.687979 -33.702656 38.590481)
(12.970444 -33.576893 38.458836)
(13.222937 -33.464474 38.266804)
(13.441441 -33.367191 38.10062)
(13.670855 -33.265049 37.833908)
(13.830997 -33.193748 37.647728)
(14.013698 -33.112404 37.316475)
(14.122089 -33.064148 37.119949)
(14.239535 -33.011856 36.741573)
(14.301995 -32.984047 36.540348)
(14.342468 -32.966026 36.137245)
(-10.16208 34.59269 38.458836)
(-11.17022 34.378403 46.428722)
(-3.7784519 35.94957 46.428722)
(-10.838177 34.448982 38.735291)
(-11.17022 34.378403 38.807446)
(-10.706654 34.476936 38.706711)
(-10.261904 34.571472 38.504272)
(-9.7482195 34.68066 38.151428)
(-9.6798162 34.695198 38.10062)
(-9.3225098 34.771145 37.694927)
(-9.2809401 34.779984 37.647728)
(-9.0049057 34.838654 37.158939)
(-8.9828854 34.843334 37.119949)
(-8.8086395 34.880371 36.571693)
(-8.7986774 34.882492 36.540348)
(-8.7393074 34.895111 35.96286)
(10.16208 -34.59269 38.458836)
(10.838177 -34.448982 38.735291)
(10.706654 -34.476936 38.706711)
(10.261904 -34.571472 38.504272)
(9.7482195 -34.68066 38.151428)
(9.6798162 -34.695198 38.10062)
(9.3225098 -34.771145 37.694927)
(9.2809401 -34.779984 37.647728)
(9.0049057 -34.838654 37.158939)
(8.9828854 -34.843334 37.119949)
(8.8086395 -34.880371 36.571693)
(8.7986774 -34.882492 36.540348)
(8.7393074 -34.895111 35.96286)
(12.438592 33.813686 38.706711)
(11.17022 34.378403 46.428722)
(12.195985 33.921703 38.760693)
(11.86913 34.06723 38.83342)
(12.708173 33.693665 38.58107)
(12.970444 33.576893 38.458836)
(13.182562 33.482452 38.297508)
(13.441441 33.367191 38.10062)
(13.599108 33.296993 37.91732)
(13.830997 33.193748 37.647728)
(13.938751 33.145775 37.452362)
(14.122089 33.064148 37.119949)
(14.184486 33.036366 36.918926)
(14.301995 32.984047 36.540348)
(14.322379 32.974972 36.337334)
(11.286945 34.326435 38.83342)
(11.17022 34.378403 38.807446)
(-11.86913 34.06723 38.83342)
(-11.286945 34.326435 38.83342)
(-12.089928 33.968922 38.78429)
(-12.438592 33.813686 38.706711)
(-18.073795 31.304733 46.428722)
(-12.687979 33.702656 38.590481)
(-12.970444 33.576893 38.458836)
(-13.222937 33.464474 38.266804)
(-13.441441 33.367191 38.10062)
(-13.670855 33.265049 37.833908)
(-13.830997 33.193748 37.647728)
(-14.013698 33.112404 37.316475)
(-14.122089 33.064148 37.119949)
(-14.239535 33.011856 36.741573)
(-14.301995 32.984047 36.540348)
(-14.342468 32.966026 36.137245)
(29.244017 -21.247021 46.428722)
(33.022469 -14.70255 46.428722)
(-12.438592 -33.813686 38.706711)
(-11.17022 -34.378403 46.428722)
(-18.073795 -31.304733 46.428722)
(-12.195985 -33.921703 38.760693)
(-11.86913 -34.06723 38.83342)
(-12.708173 -33.693665 38.58107)
(-12.970444 -33.576893 38.458836)
(-13.182562 -33.482452 38.297508)
(-13.441441 -33.367191 38.10062)
(-13.599108 -33.296993 37.91732)
(-13.830997 -33.193748 37.647728)
(-13.938751 -33.145775 37.452362)
(-14.122089 -33.064148 37.119949)
(-14.184486 -33.036366 36.918926)
(-14.301995 -32.984047 36.540348)
(-14.322379 -32.974972 36.337334)
(-11.286945 -34.326435 38.83342)
(-11.17022 -34.378403 38.807446)
(3.7784519 35.94957 46.428722)
(11.13451 34.385994 38.799686)
(10.706654 34.476936 38.706711)
(10.583817 34.503048 38.650799)
(10.16208 34.59269 38.458836)
(10.073678 34.611481 38.393173)
(9.6798162 34.695198 38.10062)
(9.6232405 34.707226 38.036385)
(9.2809401 34.779984 37.647728)
(9.2498779 34.786583 37.592724)
(8.9828854 34.843334 37.119949)
(8.9692764 34.84623 37.077129)
(8.7986774 34.882492 36.540348)
(8.7953072 34.883205 36.507568)
(-35.357681 -7.5155067 46.428722)
(-24.18746 26.862896 46.428722)
(-11.13451 -34.385994 38.799686)
(-10.706654 -34.476936 38.706711)
(-10.583817 -34.503048 38.650799)
(-10.16208 -34.59269 38.458836)
(-10.073678 -34.611481 38.393173)
(-9.6798162 -34.695198 38.10062)
(-9.6232405 -34.707226 38.036385)
(-9.2809401 -34.779984 37.647728)
(-9.2498779 -34.786583 37.592724)
(-8.9828854 -34.843334 37.119949)
(-8.9692764 -34.84623 37.077129)
(-8.7986774 -34.882492 36.540348)
(-8.7953072 -34.883205 36.507568)
(34.981541 0 46.428722)
(34.21711 7.2730713 46.428722)
(31.957228 14.228274 46.428722)
(28.300661 20.561634 46.428722)
(23.407219 25.996351 46.428722)
(17.49077 30.294903 46.428722)
(10.809891 33.269424 46.428722)
(3.6565666 34.789909 46.428722)
(-3.6565666 34.789909 46.428722)
(-10.809891 33.269424 46.428722)
(-17.49077 30.294903 46.428722)
(-23.407219 25.996351 46.428722)
(-28.300661 20.561634 46.428722)
(-31.957228 14.228274 46.428722)
(-34.21711 7.2730713 46.428722)
(-34.981541 0 46.428722)
(34.21711 -7.2730713 46.428722)
(31.957228 -14.228274 46.428722)
(28.300661 -20.561634 46.428722)
(23.407219 -25.996351 46.428722)
(17.49077 -30.294903 46.428722)
(10.809891 -33.269424 46.428722)
(3.6565666 -34.789909 46.428722)
(-3.6565666 -34.789909 46.428722)
(-10.809891 -33.269424 46.428722)
(-17.49077 -30.294903 46.428722)
(-23.407219 -25.996351 46.428722)
(-28.300661 -20.561634 46.428722)
(-31.957228 -14.228274 46.428722)
(-34.21711 -7.2730713 46.428722)
(-28.21563 -20.499855 36.934261)
(-27.557516 -21.230764 36.934261)
(-28.300661 -20.561634 35.934261)
(34.21711 0 28.661188)
(31.258884 -6.6442804 21.705986)
(-31.258884 -13.917353 28.661188)
(-29.19438 -12.998176 21.705986)
(-33.469383 -7.1141367 28.661188)
(22.895716 4.8666344 9.9379082)
(25.853939 11.510916 15.372625)
(21.38356 9.5205736 9.9379082)
(10.809891 -33.269424 35.934261)
(10.573668 -32.542404 28.661188)
(3.6565666 -34.789909 35.934261)
(3.5766611 -34.029663 28.661188)
(-25.853939 -18.783987 21.705986)
(-15.662487 17.394955 9.9379082)
(-22.895716 16.634712 15.372625)
(-10.809891 33.269424 35.934261)
(-10.777411 33.169464 36.934261)
(-11.675916 32.769424 36.934261)
(-21.38356 -23.748848 21.705986)
(-22.895716 -16.634712 15.372625)
(-25.853939 18.783987 21.705986)
(-29.19438 12.998176 21.705986)
(28.300661 0 15.372625)
(-3.3404398 -31.782162 21.705986)
(-2.9582243 -28.145626 15.372625)
(-8.7453852 -26.915527 15.372625)
(22.895716 -25.428268 28.661188)
(25.853939 -18.783987 21.705986)
(21.38356 -23.748848 21.705986)
(17.108555 -29.632887 28.661188)
(15.978614 -27.67577 21.705986)
(-10.777411 -33.169464 36.934261)
(-10.809891 -33.269424 35.934261)
(-11.675916 -32.769424 36.934261)
(8.7453852 -26.915527 15.372625)
(3.3404398 -31.782162 21.705986)
(-14.150331 -10.280817 5.6393566)
(-21.38356 -9.5205736 9.9379082)
(-23.407219 -25.996351 35.934261)
(-23.336891 -25.918243 36.934261)
(-3.6565666 34.789909 35.934261)
(-3.6455801 34.685379 36.934261)
(-4.6076231 34.480892 36.934261)
(8.7453852 26.915527 15.372625)
(2.9582243 28.145626 15.372625)
(2.4467201 23.278992 9.9379082)
(34.21711 -7.2730713 35.934261)
(33.469383 -7.1141367 28.661188)
(14.150331 -24.50909 15.372625)
(-10.573668 -32.542404 28.661188)
(-15.978614 -27.67577 21.705986)
(10.573668 32.542404 28.661188)
(3.6565666 34.789909 35.934261)
(3.5766611 34.029663 28.661188)
(15.978614 -7.1141367 5.6393566)
(17.108555 -3.6365356 5.6393566)
(10.573668 -2.2475023 2.6648371)
(17.108555 29.632887 28.661188)
(17.49077 30.294903 35.934261)
(10.809891 33.269424 35.934261)
(-2.9582243 28.145626 15.372625)
(3.3404398 31.782162 21.705986)
(-3.3404398 31.782162 21.705986)
(-14.150331 24.50909 15.372625)
(-21.38356 23.748848 21.705986)
(28.21563 -20.499855 36.934261)
(28.300661 -20.561634 35.934261)
(27.557516 -21.230764 36.934261)
(31.957228 -14.228274 35.934261)
(33.810375 -8.1866169 36.934261)
(31.86121 -14.185525 36.934261)
(22.895716 -4.8666344 9.9379082)
(11.703609 -12.998176 5.6393566)
(7.2332287 -8.0333138 2.6648371)
(5.4049454 -9.36164 2.6648371)
(11.703609 -20.271248 9.9379082)
(8.7453852 -15.147451 5.6393566)
(-1.8282833 -17.394955 5.6393566)
(2.4467201 -23.278992 9.9379082)
(1.8282833 -17.394955 5.6393566)
(-2.4467201 -23.278992 9.9379082)
(-3.5766611 -34.029663 28.661188)
(17.49077 -30.294903 35.934261)
(-3.6455801 -34.685379 36.934261)
(-3.6565666 -34.789909 35.934261)
(-4.6076231 -34.480892 36.934261)
(-14.150331 -24.50909 15.372625)
(-31.957228 -14.228274 35.934261)
(22.895716 25.428268 28.661188)
(15.978614 27.67577 21.705986)
(34.21711 7.2730713 35.934261)
(34.21711 6.2730713 36.934261)
(34.114304 7.2512188 36.934261)
(-8.7453852 6.3538942 2.6648371)
(-11.703609 12.998176 5.6393566)
(-14.150331 10.280817 5.6393566)
(3.5766611 0.76024246 1.1443511)
(10.573668 2.2475023 2.6648371)
(3.3404398 1.4872589 1.1443511)
(-17.108555 -29.632887 28.661188)
(-15.978614 27.67577 21.705986)
(-10.573668 32.542404 28.661188)
(-17.108555 29.632887 28.661188)
(3.5766611 -0.76024246 1.1443511)
(3.3404398 -1.4872589 1.1443511)
(9.8753262 -4.3967781 2.6648371)
(-8.7453852 -15.147451 5.6393566)
(-5.4049454 -9.36164 2.6648371)
(-11.703609 -12.998176 5.6393566)
(-8.7453852 26.915527 15.372625)
(-22.895716 25.428268 28.661188)
(-27.557516 21.230764 36.934261)
(-23.407219 25.996351 35.934261)
(-23.336891 25.918243 36.934261)
(-28.300661 20.561634 35.934261)
(25.853939 18.783987 21.705986)
(21.38356 23.748848 21.705986)
(31.258884 -13.917353 28.661188)
(29.19438 -12.998176 21.705986)
(25.853939 -11.510916 15.372625)
(22.895716 -16.634712 15.372625)
(-11.703609 20.271248 9.9379082)
(-7.2332287 22.261589 9.9379082)
(7.2332287 22.261589 9.9379082)
(7.2332287 -22.261589 9.9379082)
(15.662487 -17.394955 9.9379082)
(14.150331 -10.280817 5.6393566)
(-15.978614 -7.1141367 5.6393566)
(-17.108555 -3.6365356 5.6393566)
(-22.895716 -4.8666344 9.9379082)
(-15.662487 -17.394955 9.9379082)
(23.407219 -25.996351 35.934261)
(-17.49077 -30.294903 35.934261)
(-17.438219 -30.20388 36.934261)
(-33.810375 -8.1866169 36.934261)
(-31.86121 -14.185525 36.934261)
(-34.21711 -7.2730713 35.934261)
(-28.707397 -19.648088 36.934261)
(-22.895716 -25.428268 28.661188)
(-31.258884 -6.6442804 21.705986)
(-34.21711 0 28.661188)
(-28.21563 20.499855 36.934261)
(11.675916 32.769424 36.934261)
(10.777411 33.169464 36.934261)
(28.707397 -19.648088 36.934261)
(22.895716 16.634712 15.372625)
(15.978614 7.1141367 5.6393566)
(9.8753262 4.3967781 2.6648371)
(5.4049454 -16.634712 5.6393566)
(1.129941 -10.750672 2.6648371)
(3.3404398 -10.280817 2.6648371)
(0.38221455 -3.6365356 1.1443511)
(-23.407219 0 9.9379082)
(-28.300661 0 15.372625)
(-25.853939 -11.510916 15.372625)
(-2.4467201 2.7173586 1.1443511)
(-5.4049454 9.36164 2.6648371)
(-7.2332287 8.0333138 2.6648371)
(-25.853939 11.510916 15.372625)
(-31.258884 6.6442804 21.705986)
(-3.5766611 34.029663 28.661188)
(-2.4467201 23.278992 9.9379082)
(14.150331 10.280817 5.6393566)
(8.7453852 6.3538942 2.6648371)
(4.6076231 34.480892 36.934261)
(-17.49077 30.294903 35.934261)
(-22.541195 26.496351 36.934261)
(-17.438219 30.20388 36.934261)
(31.957228 14.228274 35.934261)
(33.810375 8.1866169 36.934261)
(31.86121 14.185525 36.934261)
(-31.258884 13.917353 28.661188)
(-33.469383 7.1141367 28.661188)
(22.541195 -26.496351 36.934261)
(17.438219 -30.20388 36.934261)
(23.336891 -25.918243 36.934261)
(34.21711 -6.2730713 36.934261)
(34.114304 -7.2512188 36.934261)
(31.258884 6.6442804 21.705986)
(-0.38221455 -3.6365356 1.1443511)
(-1.129941 -10.750672 2.6648371)
(-22.895716 4.8666344 9.9379082)
(-21.38356 9.5205736 9.9379082)
(-8.7453852 15.147451 5.6393566)
(2.9582243 -28.145626 15.372625)
(3.6455801 -34.685379 36.934261)
(-22.541195 -26.496351 36.934261)
(-28.707397 19.648088 36.934261)
(28.300661 20.561634 35.934261)
(28.21563 20.499855 36.934261)
(27.557516 21.230764 36.934261)
(33.469383 7.1141367 28.661188)
(31.258884 13.917353 28.661188)
(29.19438 12.998176 21.705986)
(8.7453852 -6.3538942 2.6648371)
(2.9582243 -2.1492758 1.1443511)
(-5.4049454 -16.634712 5.6393566)
(-9.8753262 -4.3967781 2.6648371)
(-3.3404398 -1.4872589 1.1443511)
(-10.573668 -2.2475023 2.6648371)
(14.150331 24.50909 15.372625)
(15.662487 17.394955 9.9379082)
(11.703609 20.271248 9.9379082)
(17.108555 3.6365356 5.6393566)
(3.6455801 34.685379 36.934261)
(4.6076231 -34.480892 36.934261)
(11.675916 -32.769424 36.934261)
(-0.38221455 3.6365356 1.1443511)
(-1.129941 10.750672 2.6648371)
(-3.3404398 10.280817 2.6648371)
(5.4049454 16.634712 5.6393566)
(1.8282833 17.394955 5.6393566)
(8.7453852 15.147451 5.6393566)
(-17.108555 3.6365356 5.6393566)
(-10.809891 0 2.6648371)
(-17.49077 0 5.6393566)
(21.38356 -9.5205736 9.9379082)
(10.777411 -33.169464 36.934261)
(-34.21711 -6.2730713 36.934261)
(-34.114304 -7.2512188 36.934261)
(-33.810375 8.1866169 36.934261)
(-31.957228 14.228274 35.934261)
(-31.86121 14.185525 36.934261)
(-34.21711 7.2730713 35.934261)
(-34.114304 7.2512188 36.934261)
(-34.21711 6.2730713 36.934261)
(28.707397 19.648088 36.934261)
(34.981541 0 35.934261)
(34.876438 0 36.934261)
(5.4049454 9.36164 2.6648371)
(-11.703609 -20.271248 9.9379082)
(-3.3404398 1.4872589 1.1443511)
(-9.8753262 4.3967781 2.6648371)
(-1.129941 -3.4776011 1.1443511)
(-3.3404398 -10.280817 2.6648371)
(-8.7453852 -6.3538942 2.6648371)
(-2.4467201 -2.7173586 1.1443511)
(-7.2332287 -8.0333138 2.6648371)
(-34.981541 0 35.934261)
(-34.876438 0 36.934261)
(-15.978614 7.1141367 5.6393566)
(10.809891 0 2.6648371)
(3.6565666 0 1.1443511)
(23.407219 25.996351 35.934261)
(-7.2332287 -22.261589 9.9379082)
(-3.6565666 0 1.1443511)
(-3.5766611 0.76024246 1.1443511)
(-10.573668 2.2475023 2.6648371)
(1.129941 10.750672 2.6648371)
(-1.8282833 17.394955 5.6393566)
(0.38221455 3.6365356 1.1443511)
(23.336891 25.918243 36.934261)
(22.541195 26.496351 36.934261)
(3.3404398 10.280817 2.6648371)
(11.703609 12.998176 5.6393566)
(1.8282833 3.1666794 1.1443511)
(-5.4049454 16.634712 5.6393566)
(2.9582243 2.1492758 1.1443511)
(2.4467201 2.7173586 1.1443511)
(23.407219 0 9.9379082)
(2.4467201 -2.7173586 1.1443511)
(1.8282833 -3.1666794 1.1443511)
(1.129941 3.4776011 1.1443511)
(17.438219 30.20388 36.934261)
(7.2332287 8.0333138 2.6648371)
(-3.5766611 -0.76024246 1.1443511)
(-1.8282833 -3.1666794 1.1443511)
(-2.9582243 2.1492758 1.1443511)
(1.129941 -3.4776011 1.1443511)
(17.49077 0 5.6393566)
(-2.9582243 -2.1492758 1.1443511)
(-1.8282833 3.1666794 1.1443511)
(-1.129941 3.4776011 1.1443511)
(34.21711 7.2730713 36.934261)
(31.957228 14.228274 43.52158)
(31.957228 14.228274 36.934261)
(34.21711 7.2730713 43.52158)
(34.21711 7.2730713 46.420738)
(31.957228 14.228274 46.420738)
(34.981541 0 36.934261)
(34.981541 0 43.52158)
(34.981541 0 46.420738)
(28.300661 20.561634 43.52158)
(28.300661 20.561634 36.934261)
(28.300661 20.561634 46.420738)
(3.6565666 34.789909 36.934261)
(10.809891 33.269424 43.52158)
(3.6565666 34.789909 43.52158)
(10.809891 33.269424 36.934261)
(3.6565666 34.789909 46.420738)
(10.809891 33.269424 46.420738)
(34.21711 -7.2730713 36.934261)
(34.21711 -7.2730713 43.52158)
(34.21711 -7.2730713 46.420738)
(-34.981541 0 43.52158)
(-34.21711 7.2730713 36.934261)
(-34.21711 7.2730713 43.52158)
(-34.981541 0 36.934261)
(-34.21711 7.2730713 46.420738)
(-34.981541 0 46.420738)
(-17.49077 -30.294903 36.934261)
(-23.407219 -25.996351 43.52158)
(-17.49077 -30.294903 43.52158)
(-23.407219 -25.996351 36.934261)
(-17.49077 -30.294903 46.420738)
(-23.407219 -25.996351 46.420738)
(23.407219 25.996351 43.52158)
(23.407219 25.996351 36.934261)
(23.407219 25.996351 46.420738)
(10.809891 -33.269424 36.934261)
(3.6565666 -34.789909 43.52158)
(10.809891 -33.269424 43.52158)
(3.6565666 -34.789909 36.934261)
(10.809891 -33.269424 46.420738)
(3.6565666 -34.789909 46.420738)
(23.407219 -25.996351 36.934261)
(17.49077 -30.294903 43.52158)
(23.407219 -25.996351 43.52158)
(17.49077 -30.294903 36.934261)
(23.407219 -25.996351 46.420738)
(17.49077 -30.294903 46.420738)
(17.49077 30.294903 43.52158)
(17.49077 30.294903 36.934261)
(17.49077 30.294903 46.420738)
(-3.6565666 -34.789909 36.934261)
(-10.809891 -33.269424 43.52158)
(-3.6565666 -34.789909 43.52158)
(-10.809891 -33.269424 36.934261)
(-3.6565666 -34.789909 46.420738)
(-10.809891 -33.269424 46.420738)
(-28.300661 -20.561634 43.52158)
(-31.957228 -14.228274 36.934261)
(-31.957228 -14.228274 43.52158)
(-28.300661 -20.561634 36.934261)
(-31.957228 -14.228274 46.420738)
(-28.300661 -20.561634 46.420738)
(-31.957228 14.228274 43.52158)
(-28.300661 20.561634 36.934261)