/*--------------------------------*- C++ -*----------------------------------*\
  =========                 |
  \\      /  F ield         | OpenFOAM: The Open Source CFD Toolbox
   \\    /   O peration     | Website:  https://openfoam.org
    \\  /    A nd           | Version:  12
     \\/     M anipulation  |
\*---------------------------------------------------------------------------*/
FoamFile
{
    format      ascii;
    class       featureEdgeMesh;
    location    "constant/geometry";
    object      pot_round.eMesh;
}
// * * * * * * * * * * * * * * * * * * * * * * * * * * * * * * * * * * * * * //


// points:

2342
(
(24.18746 0 9.2846966)
(28.604965 6.0801725 14.900571)
(22.096344 -9.8379259 9.2846966)
(-22.096344 -9.8379259 9.2846966)
(-28.604965 6.0801725 14.900571)
(-2.5282774 24.054958 9.2846966)
(22.096344 9.8379259 9.2846966)
(-24.18746 0 9.2846966)
(33.022469 0 21.445044)
(24.18746 -26.862896 36.147594)
(-24.18746 26.862896 36.147594)
(-10.204504 31.406235 21.445044)
(10.204504 31.406235 21.445044)
(28.604965 -6.0801725 14.900571)
(-28.604965 -6.0801725 14.900571)
(10.204504 -31.406235 21.445044)
(-10.204504 -31.406235 21.445044)
(-22.096344 9.8379259 9.2846966)
(-33.022469 0 21.445044)
(-31.957228 0 21.919319)
(-27.682224 -20.112312 28.874521)
(27.682224 -20.112312 28.874521)
(18.936838 -13.758418 10.151241)
(-18.936838 -13.758418 10.151241)
(27.682224 -5.884038 15.585958)
(-18.936838 -21.03149 15.585958)
(9.8753262 30.393129 21.919319)
(-18.936838 21.03149 15.585958)
(-9.8753262 -30.393129 21.919319)
(27.682224 5.884038 15.585958)
(31.957228 0 21.919319)
(18.936838 21.03149 15.585958)
(-9.8753262 30.393129 21.919319)
(18.936838 -21.03149 15.585958)
(-27.682224 5.884038 15.585958)
(27.682224 20.112312 28.874521)
(-18.936838 13.758418 10.151241)
(9.8753262 -30.393129 21.919319)
(-27.682224 20.112312 28.874521)
(18.936838 13.758418 10.151241)
(-27.682224 -5.884038 15.585958)
(19.568066 21.73254 14.900571)
(16.511234 28.598297 21.445044)
(22.096344 24.540478 21.445044)
(23.658905 17.189201 14.900571)
(26.715738 19.41012 21.445044)
(18.073795 0 4.8428597)
(23.658905 5.0288553 9.2846966)
(29.244017 0 14.900571)
(26.715738 -11.894612 14.900571)
(19.568066 -14.217032 9.2846966)
(-16.18457 17.974785 9.2846966)
(-19.568066 21.73254 14.900571)
(-14.622008 25.326061 14.900571)
(-3.0568314 29.083815 14.900571)
(-9.0368977 27.812714 14.900571)
(-3.4517879 32.841568 21.445044)
(-26.715738 -11.894612 14.900571)
(-23.658905 -5.0288553 9.2846966)
(9.0368977 -27.812714 14.900571)
(7.4743357 -23.003643 9.2846966)
(14.622008 -25.326061 14.900571)
(-8.7390881 -34.891991 36.117958)
(-3.7784519 -35.94957 36.147594)
(-8.7363663 -34.895737 36.147594)
(-8.7920189 -34.819138 35.541504)
(-8.8083277 -34.80999 35.48835)
(-8.9698591 -34.719398 34.961903)
(-9.0120592 -34.702286 34.885696)
(-9.2621155 -34.600876 34.434124)
(-3.6958838 -35.163986 28.632086)
(-9.3415909 -34.574219 34.342747)
(-9.3572989 -34.568951 34.324684)
(28.604965 -20.782722 28.632086)
(26.715738 -19.41012 21.445044)
(32.30085 -14.381264 28.632086)
(-9.0368977 -6.56569 1.7691891)
(-14.622008 -10.62351 4.8428597)
(-10.204504 -4.5433378 1.7691891)
(-23.658905 -17.189201 14.900571)
(-30.167526 -13.431448 21.445044)
(-11.253638 34.009541 33.248436)
(-10.926124 33.627151 28.632086)
(-11.835823 33.750336 33.248436)
(-11.077335 34.092533 33.287762)
(-12.622934 33.425854 33.475365)
(-12.40674 33.510643 33.375141)
(-12.098843 33.639908 33.306808)
(-17.678841 30.620649 28.632086)
(-12.94144 33.300941 33.623016)
(-13.113061 33.239338 33.752411)
(-13.192583 33.210793 33.81237)
(-16.511234 -7.3512745 4.8428597)
(-17.678841 -3.7577534 4.8428597)
(32.30085 14.381264 28.632086)
(29.244017 21.247021 36.147594)
(33.022469 14.70255 36.147594)
(10.926124 33.627151 28.632086)
(10.303136 34.284672 33.545803)
(10.676194 34.187138 33.375141)
(10.883989 34.138134 33.32988)
(11.077335 34.092533 33.287762)
(10.134344 34.3288 33.623016)
(9.77981 34.432533 33.888523)
(3.6958838 35.163986 28.632086)
(9.6560163 34.468754 33.981232)
(9.3572989 34.568951 34.324684)
(28.604965 20.782722 28.632086)
(33.022469 -14.70255 36.147594)
(35.357681 -7.5155067 36.147594)
(12.09373 -13.431448 4.8428597)
(14.622008 -10.62351 4.8428597)
(30.167526 -13.431448 21.445044)
(32.30085 -6.865757 21.445044)
(11.253638 -34.009541 33.248436)
(10.926124 -33.627151 28.632086)
(11.835823 -33.750336 33.248436)
(11.077335 -34.092533 33.287762)
(12.622934 -33.425854 33.475365)
(12.40674 -33.510643 33.375141)
(12.098843 -33.639908 33.306808)
(17.678841 -30.620649 28.632086)
(12.94144 -33.300941 33.623016)
(13.113061 -33.239338 33.752411)
(13.192583 -33.210793 33.81237)
(-34.58503 7.3512745 28.632086)
(-35.357681 7.5155067 36.147594)
(-32.30085 14.381264 28.632086)
(3.4517879 10.62351 1.7691891)
(0.39495564 3.7577534 0.19802119)
(1.1676054 11.109029 1.7691891)
(-32.30085 -14.381264 28.632086)
(-34.58503 -7.3512745 28.632086)
(-32.30085 -6.865757 21.445044)
(-29.244017 0 14.900571)
(-32.30085 6.865757 21.445044)
(3.4517879 32.841568 21.445044)
(-3.4517879 1.5368347 0.19802119)
(-10.926124 2.3224192 1.7691891)
(-10.204504 4.5433378 1.7691891)
(-28.604965 20.782722 28.632086)
(-29.244017 21.247021 36.147594)
(-7.4743357 23.003643 9.2846966)
(9.0368977 15.652367 4.8428597)
(5.5851097 17.189201 4.8428597)
(7.4743357 23.003643 9.2846966)
(35.357681 7.5155067 36.147594)
(23.658905 26.275877 28.632086)
(19.568066 14.217032 9.2846966)
(-35.357681 -7.5155067 36.147594)
(-9.0368977 -15.652367 4.8428597)
(-12.09373 -20.946955 9.2846966)
(-12.09373 -13.431448 4.8428597)
(18.073795 31.304733 36.147594)
(14.340627 32.944122 35.948986)
(14.36285 32.956955 36.147594)
(14.295033 32.917797 35.541504)
(14.235747 32.923119 35.357323)
(14.108468 32.934544 34.961903)
(14.013267 32.957584 34.792816)
(13.811313 33.006458 34.434124)
(17.678841 30.620649 28.632086)
(13.678402 33.048183 34.281639)
(13.416552 33.130394 33.981232)
(13.24169 33.193165 33.849392)
(13.192584 33.210793 33.81237)
(30.167526 13.431448 21.445044)
(29.244017 -21.247021 36.147594)
(23.658905 -26.275877 28.632086)
(35.357681 0 28.632086)
(32.30085 6.865757 21.445044)
(34.58503 7.3512745 28.632086)
(23.658905 -17.189201 14.900571)
(-10.926124 -2.3224192 1.7691891)
(-11.17022 0 1.7691891)
(-3.6958838 -0.7855835 0.19802119)
(18.073795 -31.304733 36.147594)
(-23.658905 26.275877 28.632086)
(-18.073795 31.304733 36.147594)
(-36.147591 0 36.147594)
(-5.5851097 -9.6736946 1.7691891)
(-7.4743357 -8.3010912 1.7691891)
(-26.715738 11.894612 14.900571)
(-1.889226 17.974785 4.8428597)
(-16.511234 28.598297 21.445044)
(14.622008 10.62351 4.8428597)
(12.09373 13.431448 4.8428597)
(12.09373 20.946955 9.2846966)
(26.715738 11.894612 14.900571)
(16.18457 17.974785 9.2846966)
(8.7390881 34.891991 36.117958)
(3.7784519 35.94957 36.147594)
(8.7363663 34.895737 36.147594)
(8.7920189 34.819138 35.541504)
(8.8083277 34.80999 35.48835)
(8.9698591 34.719398 34.961903)
(9.0120592 34.702286 34.885696)
(9.2621155 34.600876 34.434124)
(9.3415909 34.574219 34.342747)
(16.511234 -7.3512745 4.8428597)
(36.147591 0 36.147594)
(16.511234 7.3512745 4.8428597)
(10.204504 4.5433378 1.7691891)
(7.4743357 8.3010912 1.7691891)
(10.926124 2.3224192 1.7691891)
(17.678841 3.7577534 4.8428597)
(23.658905 -5.0288553 9.2846966)
(17.678841 -3.7577534 4.8428597)
(19.568066 -21.73254 14.900571)
(16.18457 -17.974785 9.2846966)
(-7.4743357 -23.003643 9.2846966)
(-5.5851097 -17.189201 4.8428597)
(-22.096344 -24.540478 21.445044)
(-26.715738 -19.41012 21.445044)
(-19.568066 -21.73254 14.900571)
(12.09373 -20.946955 9.2846966)
(-18.073795 0 4.8428597)
(-23.658905 5.0288553 9.2846966)
(-23.658905 17.189201 14.900571)
(-26.715738 19.41012 21.445044)
(-16.511234 7.3512745 4.8428597)
(-19.568066 14.217032 9.2846966)
(-14.622008 10.62351 4.8428597)
(-33.022469 -14.70255 36.147594)
(-3.4517879 -32.841568 21.445044)
(-9.0368977 -27.812714 14.900571)
(-3.0568314 -29.083815 14.900571)
(2.5282774 24.054958 9.2846966)
(1.889226 17.974785 4.8428597)
(5.5851097 9.6736946 1.7691891)
(7.4743357 -8.3010912 1.7691891)
(2.5282774 -2.8079367 0.19802119)
(9.0368977 -6.56569 1.7691891)
(3.7784519 0 0.19802119)
(3.6958838 0.7855835 0.19802119)
(11.17022 0 1.7691891)
(12.132168 33.625919 33.314205)
(12.40674 33.510643 33.375141)
(11.835823 33.750336 33.248436)
(12.719124 33.38813 33.519955)
(12.94144 33.300941 33.623016)
(11.253638 34.009541 33.248436)
(14.622008 25.326061 14.900571)
(-16.511234 -28.598297 21.445044)
(-16.18457 -17.974785 9.2846966)
(-19.568066 -14.217032 9.2846966)
(3.4517879 1.5368347 0.19802119)
(9.0368977 6.56569 1.7691891)
(16.511234 -28.598297 21.445044)
(1.889226 3.2722349 0.19802119)
(9.0368977 -15.652367 4.8428597)
(5.5851097 -9.6736946 1.7691891)
(3.6958838 -35.163986 28.632086)
(3.4517879 -32.841568 21.445044)
(-10.926124 -33.627151 28.632086)
(34.58503 -7.3512745 28.632086)
(-9.9897127 34.371117 33.731331)
(-9.6560163 34.468754 33.981232)
(-10.485981 34.236866 33.462158)
(-10.134344 34.3288 33.623016)
(-3.6958838 35.163986 28.632086)
(-9.5582552 34.501545 34.093632)
(-9.3572989 34.568951 34.324684)
(-10.676194 34.187138 33.375141)
(-11.029647 34.103783 33.298149)
(-9.0368977 6.56569 1.7691891)
(-3.0568314 2.2209177 0.19802119)
(-1.889226 -17.974785 4.8428597)
(3.0568314 2.2209177 0.19802119)
(-3.6958838 0.7855835 0.19802119)
(-7.4743357 8.3010912 1.7691891)
(-12.09373 13.431448 4.8428597)
(-30.167526 13.431448 21.445044)
(-33.022469 14.70255 36.147594)
(-22.096344 24.540478 21.445044)
(-28.604965 -20.782722 28.632086)
(-18.073795 -31.304733 36.147594)
(-24.18746 -26.862896 36.147594)
(-23.658905 -26.275877 28.632086)
(-12.09373 20.946955 9.2846966)
(-3.7784519 35.94957 36.147594)
(-8.7872486 34.825703 35.593449)
(-8.7363663 34.895737 36.147594)
(-8.7920189 34.819138 35.541504)
(-8.9457197 34.732937 35.040577)
(-8.9698591 34.719398 34.961903)
(-9.2061872 34.623558 34.535122)
(-9.2621155 34.600876 34.434124)
(-5.5851097 17.189201 4.8428597)
(-9.0368977 15.652367 4.8428597)
(9.0368977 27.812714 14.900571)
(3.0568314 29.083815 14.900571)
(-17.678841 3.7577534 4.8428597)
(-3.4517879 10.62351 1.7691891)
(-5.5851097 9.6736946 1.7691891)
(-29.244017 -21.247021 36.147594)
(-14.622008 -25.326061 14.900571)
(9.9897127 -34.371117 33.731331)
(9.6560163 -34.468754 33.981232)
(10.485981 -34.236866 33.462158)
(10.134344 -34.3288 33.623016)
(9.5582552 -34.501545 34.093632)
(9.3572989 -34.568951 34.324684)
(10.676194 -34.187138 33.375141)
(11.029647 -34.103783 33.298149)
(10.204504 -4.5433378 1.7691891)
(22.096344 -24.540478 21.445044)
(-1.1676054 3.5935211 0.19802119)
(-0.39495564 3.7577534 0.19802119)
(-2.5282774 2.8079367 0.19802119)
(-1.889226 3.2722349 0.19802119)
(14.316745 -32.930336 35.73555)
(14.36285 -32.956955 36.147594)
(14.295033 -32.917797 35.541504)
(14.166469 -32.929337 35.142097)
(14.108468 -32.934544 34.961903)
(13.9048 -32.983833 34.600166)
(13.811313 -33.006458 34.434124)
(13.547357 -33.089329 34.131298)
(13.416552 -33.130394 33.981232)
(-3.4517879 -1.5368347 0.19802119)
(-1.889226 -3.2722349 0.19802119)
(-35.357681 0 28.632086)
(-1.1676054 -3.5935211 0.19802119)
(-14.316745 32.930336 35.73555)
(-14.36285 32.956955 36.147594)
(-14.295033 32.917797 35.541504)
(-14.166469 32.929337 35.142097)
(-14.108468 32.934544 34.961903)
(-13.9048 32.983833 34.600166)
(-13.811313 33.006458 34.434124)
(-13.547357 33.089329 34.131298)
(-13.416552 33.130394 33.981232)
(24.18746 26.862896 36.147594)
(3.0568314 -29.083815 14.900571)
(2.5282774 -24.054958 9.2846966)
(-1.1676054 -11.109029 1.7691891)
(5.5851097 -17.189201 4.8428597)
(3.4517879 -10.62351 1.7691891)
(1.889226 -17.974785 4.8428597)
(1.889226 -3.2722349 0.19802119)
(-3.7784519 0 0.19802119)
(2.5282774 2.8079367 0.19802119)
(-3.4517879 -10.62351 1.7691891)
(-0.39495564 -3.7577534 0.19802119)
(10.926124 -2.3224192 1.7691891)
(3.6958838 -0.7855835 0.19802119)
(1.1676054 3.5935211 0.19802119)
(3.7784519 -35.94957 36.147594)
(8.7872486 -34.825703 35.593449)
(8.7363663 -34.895737 36.147594)
(8.7920189 -34.819138 35.541504)
(8.9457197 -34.732937 35.040577)
(8.9698591 -34.719398 34.961903)
(9.2061872 -34.623558 34.535122)
(9.2621155 -34.600876 34.434124)
(-12.132168 -33.625919 33.314205)
(-12.40674 -33.510643 33.375141)
(-11.835823 -33.750336 33.248436)
(-12.719124 -33.38813 33.519955)
(-17.678841 -30.620649 28.632086)
(-12.94144 -33.300941 33.623016)
(-13.192584 -33.210793 33.81237)
(-11.253638 -34.009541 33.248436)
(-11.077335 -34.092533 33.287762)
(3.4517879 -1.5368347 0.19802119)
(1.1676054 -11.109029 1.7691891)
(0.39495564 -3.7577534 0.19802119)
(-1.1676054 11.109029 1.7691891)
(-3.0568314 -2.2209177 0.19802119)
(-14.340627 -32.944122 35.948986)
(-14.36285 -32.956955 36.147594)
(-14.295033 -32.917797 35.541504)
(-14.235747 -32.923119 35.357323)
(-14.108468 -32.934544 34.961903)
(-14.013267 -32.957584 34.792816)
(-13.811313 -33.006458 34.434124)
(-13.678402 -33.048183 34.281639)
(-13.416552 -33.130394 33.981232)
(-13.24169 -33.193165 33.849392)
(-2.5282774 -24.054958 9.2846966)
(3.0568314 -2.2209177 0.19802119)
(1.1676054 -3.5935211 0.19802119)
(-2.5282774 -2.8079367 0.19802119)
(-10.303136 -34.284672 33.545803)
(-10.676194 -34.187138 33.375141)
(-10.883989 -34.138134 33.32988)
(-10.134344 -34.3288 33.623016)
(-9.77981 -34.432533 33.888523)
(-9.6560163 -34.468754 33.981232)
(24.18746 -26.862896 46.642056)
(18.073795 -31.304733 46.642056)
(35.357681 7.5155067 46.642056)
(33.022469 14.70255 46.642056)
(36.147591 0 46.642056)
(29.244017 21.247021 46.642056)
(-24.18746 26.862896 46.642056)
(-18.073795 31.304733 46.642056)
(3.7784519 -35.94957 46.642056)
(-3.7784519 -35.94957 46.642056)
(35.357681 -7.5155067 46.642056)
(29.244017 -21.247021 46.642056)
(33.022469 -14.70255 46.642056)
(12.438592 33.813686 38.920044)
(11.17022 34.378403 46.642056)
(18.073795 31.304733 46.642056)
(12.195985 33.921703 38.974026)
(11.86913 34.06723 39.046753)
(12.708173 33.693665 38.794403)
(12.970444 33.576893 38.672169)
(13.182562 33.482452 38.510841)
(13.441441 33.367191 38.313953)
(13.599108 33.296993 38.130653)
(13.830997 33.193748 37.861061)
(13.938751 33.145775 37.665695)
(14.122089 33.064148 37.333282)
(14.184486 33.036366 37.132259)
(14.301995 32.984047 36.753681)
(14.322379 32.974972 36.550667)
(11.286945 34.326435 39.046753)
(11.17022 34.378403 39.020779)
(24.18746 26.862896 46.642056)
(-29.244017 21.247021 46.642056)
(-35.357681 7.5155067 46.642056)
(-36.147591 0 46.642056)
(11.86913 -34.06723 39.046753)
(11.17022 -34.378403 46.642056)
(11.286945 -34.326435 39.046753)
(11.17022 -34.378403 39.020779)
(12.089928 -33.968922 38.997623)
(12.438592 -33.813686 38.920044)
(12.687979 -33.702656 38.803814)
(12.970444 -33.576893 38.672169)
(13.222937 -33.464474 38.480137)
(13.441441 -33.367191 38.313953)
(13.670855 -33.265049 38.047241)
(13.830997 -33.193748 37.861061)
(14.013698 -33.112404 37.529808)
(14.122089 -33.064148 37.333282)
(14.239535 -33.011856 36.954906)
(14.301995 -32.984047 36.753681)
(14.342468 -32.966026 36.350578)
(10.16208 -34.59269 38.672169)
(10.838177 -34.448982 38.948624)
(10.706654 -34.476936 38.920044)
(10.261904 -34.571472 38.717606)
(9.7482195 -34.68066 38.364761)
(9.6798162 -34.695198 38.313953)
(9.3225098 -34.771145 37.90826)
(9.2809401 -34.779984 37.861061)
(9.0049057 -34.838654 37.372272)
(8.9828854 -34.843334 37.333282)
(8.8086395 -34.880371 36.785027)
(8.7986774 -34.882492 36.753681)
(8.7393074 -34.895111 36.176193)
(-33.022469 14.70255 46.642056)
(-10.16208 34.59269 38.672169)
(-11.17022 34.378403 46.642056)
(-3.7784519 35.94957 46.642056)
(-10.838177 34.448982 38.948624)
(-11.17022 34.378403 39.020779)
(-10.706654 34.476936 38.920044)
(-10.261904 34.571472 38.717606)
(-9.7482195 34.68066 38.364761)
(-9.6798162 34.695198 38.313953)
(-9.3225098 34.771145 37.90826)
(-9.2809401 34.779984 37.861061)
(-9.0049057 34.838654 37.372272)
(-8.9828854 34.843334 37.333282)
(-8.8086395 34.880371 36.785027)
(-8.7986774 34.882492 36.753681)
(-8.7393074 34.895111 36.176193)
(-29.244017 -21.247021 46.642056)
(-24.18746 -26.862896 46.642056)
(34.981541 0 46.642056)
(34.21711 7.2730713 46.642056)
(31.957228 14.228274 46.642056)
(28.300661 20.561634 46.642056)
(23.407219 25.996351 46.642056)
(17.49077 30.294903 46.642056)
(10.809891 33.269424 46.642056)
(3.7784519 35.94957 46.642056)
(3.6565666 34.789909 46.642056)
(-3.6565666 34.789909 46.642056)
(-10.809891 33.269424 46.642056)
(-17.49077 30.294903 46.642056)
(-23.407219 25.996351 46.642056)
(-28.300661 20.561634 46.642056)
(-31.957228 14.228274 46.642056)
(-34.21711 7.2730713 46.642056)
(-34.981541 0 46.642056)
(34.21711 -7.2730713 46.642056)
(31.957228 -14.228274 46.642056)
(28.300661 -20.561634 46.642056)
(23.407219 -25.996351 46.642056)
(17.49077 -30.294903 46.642056)
(10.809891 -33.269424 46.642056)
(3.6565666 -34.789909 46.642056)
(-3.6565666 -34.789909 46.642056)
(-10.809891 -33.269424 46.642056)
(-11.17022 -34.378403 46.642056)
(-17.49077 -30.294903 46.642056)
(-18.073795 -31.304733 46.642056)
(-23.407219 -25.996351 46.642056)
(-28.300661 -20.561634 46.642056)
(-31.957228 -14.228274 46.642056)
(-33.022469 -14.70255 46.642056)
(-34.21711 -7.2730713 46.642056)
(-35.357681 -7.5155067 46.642056)
(-11.13451 -34.385994 39.01302)
(-11.17022 -34.378403 39.020779)
(-10.706654 -34.476936 38.920044)
(-10.583817 -34.503048 38.864132)
(-10.16208 -34.59269 38.672169)
(-10.073678 -34.611481 38.606506)
(-9.6798162 -34.695198 38.313953)
(-9.6232405 -34.707226 38.249718)
(-9.2809401 -34.779984 37.861061)
(-9.2498779 -34.786583 37.806057)
(-8.9828854 -34.843334 37.333282)
(-8.9692764 -34.84623 37.290462)
(-8.7986774 -34.882492 36.753681)
(-8.7953072 -34.883205 36.720905)
(-11.86913 34.06723 39.046753)
(-11.286945 34.326435 39.046753)
(-12.089928 33.968922 38.997623)
(-12.438592 33.813686 38.920044)
(-12.687979 33.702656 38.803814)
(-12.970444 33.576893 38.672169)
(-13.222937 33.464474 38.480137)
(-13.441441 33.367191 38.313953)
(-13.670855 33.265049 38.047241)
(-13.830997 33.193748 37.861061)
(-14.013698 33.112404 37.529808)
(-14.122089 33.064148 37.333282)
(-14.239535 33.011856 36.954906)
(-14.301995 32.984047 36.753681)
(-14.342468 32.966026 36.350578)
(-12.438592 -33.813686 38.920044)
(-12.195985 -33.921703 38.974026)
(-11.86913 -34.06723 39.046753)
(-12.708173 -33.693665 38.794403)
(-12.970444 -33.576893 38.672169)
(-13.182562 -33.482452 38.510841)
(-13.441441 -33.367191 38.313953)
(-13.599108 -33.296993 38.130653)
(-13.830997 -33.193748 37.861061)
(-13.938751 -33.145775 37.665695)
(-14.122089 -33.064148 37.333282)
(-14.184486 -33.036366 37.132259)
(-14.301995 -32.984047 36.753681)
(-14.322379 -32.974972 36.550667)
(-11.286945 -34.326435 39.046753)
(11.13451 34.385994 39.01302)
(10.706654 34.476936 38.920044)
(10.583817 34.503048 38.864132)
(10.16208 34.59269 38.672169)
(10.073678 34.611481 38.606506)
(9.6798162 34.695198 38.313953)
(9.6232405 34.707226 38.249718)
(9.2809401 34.779984 37.861061)
(9.2498779 34.786583 37.806057)
(8.9828854 34.843334 37.333282)
(8.9692764 34.84623 37.290462)
(8.7986774 34.882492 36.753681)
(8.7953072 34.883205 36.720905)
(-22.895716 -16.634712 15.585958)
(-25.853939 -11.510916 15.585958)
(-29.19438 -12.998176 21.919319)
(28.300661 20.561634 36.147594)
(28.21563 20.499855 37.147594)
(27.557516 21.230764 37.147594)
(3.3404398 -31.782162 21.919319)
(-3.5766611 -34.029663 28.874521)
(3.5766611 -34.029663 28.874521)
(-3.3404398 -31.782162 21.919319)
(-14.150331 24.50909 15.585958)
(-15.978614 27.67577 21.919319)
(-21.38356 23.748848 21.919319)
(-15.978614 -27.67577 21.919319)
(-14.150331 -24.50909 15.585958)
(-21.38356 -23.748848 21.919319)
(-31.258884 -6.6442804 21.919319)
(-28.300661 0 15.585958)
(10.573668 -32.542404 28.874521)
(17.49077 -30.294903 36.147594)
(11.675916 -32.769424 37.147594)
(17.438219 -30.20388 37.147594)
(10.809891 -33.269424 36.147594)
(-28.21563 -20.499855 37.147594)
(-27.557516 -21.230764 37.147594)
(-28.300661 -20.561634 36.147594)
(-10.573668 -2.2475023 2.8781703)
(-3.6565666 0 1.3576844)
(-10.809891 0 2.8781703)
(10.573668 32.542404 28.874521)
(3.5766611 34.029663 28.874521)
(3.3404398 31.782162 21.919319)
(17.49077 0 5.8526902)
(23.407219 0 10.151241)
(17.108555 3.6365356 5.8526902)
(-25.853939 11.510916 15.585958)
(-22.895716 16.634712 15.585958)
(-29.19438 12.998176 21.919319)
(17.49077 30.294903 36.147594)
(11.675916 32.769424 37.147594)
(10.809891 33.269424 36.147594)
(17.438219 30.20388 37.147594)
(34.21711 -7.2730713 36.147594)
(33.469383 -7.1141367 28.874521)
(31.258884 -13.917353 28.874521)
(31.957228 -14.228274 36.147594)
(33.810375 -8.1866169 37.147594)
(31.86121 -14.185525 37.147594)
(22.895716 4.8666344 10.151241)
(25.853939 11.510916 15.585958)
(21.38356 9.5205736 10.151241)
(3.6565666 -34.789909 36.147594)
(8.7453852 -26.915527 15.585958)
(2.9582243 -28.145626 15.585958)
(-22.895716 -25.428268 28.874521)
(14.150331 -24.50909 15.585958)
(11.703609 -20.271248 10.151241)
(7.2332287 -22.261589 10.151241)
(-10.573668 -32.542404 28.874521)
(-17.108555 -29.632887 28.874521)
(-25.853939 18.783987 21.919319)
(17.108555 29.632887 28.874521)
(25.853939 -18.783987 21.919319)
(15.662487 -17.394955 10.151241)
(14.150331 -10.280817 5.8526902)
(-15.662487 -17.394955 10.151241)
(-14.150331 -10.280817 5.8526902)
(-10.573668 32.542404 28.874521)
(-10.809891 33.269424 36.147594)
(-17.108555 29.632887 28.874521)
(25.853939 18.783987 21.919319)
(22.895716 25.428268 28.874521)
(21.38356 23.748848 21.919319)
(-10.777411 33.169464 37.147594)
(-11.675916 32.769424 37.147594)
(-4.6076231 34.480892 37.147594)
(-3.6565666 34.789909 36.147594)
(-31.258884 -13.917353 28.874521)
(-33.469383 -7.1141367 28.874521)
(28.21563 -20.499855 37.147594)
(28.300661 -20.561634 36.147594)
(27.557516 -21.230764 37.147594)
(17.108555 -29.632887 28.874521)
(22.895716 -25.428268 28.874521)
(15.978614 -27.67577 21.919319)
(25.853939 -11.510916 15.585958)
(22.895716 -4.8666344 10.151241)
(3.3404398 10.280817 2.8781703)
(5.4049454 16.634712 5.8526902)
(1.8282833 17.394955 5.8526902)
(-3.3404398 -1.4872589 1.3576844)
(-3.5766611 -0.76024246 1.3576844)
(2.4467201 -23.278992 10.151241)
(-2.9582243 -28.145626 15.585958)
(-2.4467201 -23.278992 10.151241)
(21.38356 -23.748848 21.919319)
(23.407219 -25.996351 36.147594)
(-3.6565666 -34.789909 36.147594)
(-17.49077 -30.294903 36.147594)
(-23.407219 -25.996351 36.147594)
(-22.895716 25.428268 28.874521)
(33.469383 7.1141367 28.874521)
(34.21711 7.2730713 36.147594)
(31.258884 13.917353 28.874521)
(11.703609 -12.998176 5.8526902)
(29.19438 -12.998176 21.919319)
(31.258884 -6.6442804 21.919319)
(-8.7453852 -26.915527 15.585958)
(-34.114304 -7.2512188 37.147594)
(-33.810375 -8.1866169 37.147594)
(-34.21711 -7.2730713 36.147594)
(-1.8282833 -3.1666794 1.3576844)
(-2.4467201 -2.7173586 1.3576844)
(-5.4049454 -9.36164 2.8781703)
(4.6076231 34.480892 37.147594)
(3.6565666 34.789909 36.147594)
(10.777411 33.169464 37.147594)
(15.978614 27.67577 21.919319)
(8.7453852 26.915527 15.585958)
(-28.300661 20.561634 36.147594)
(-28.21563 20.499855 37.147594)
(-28.707397 19.648088 37.147594)
(28.707397 -19.648088 37.147594)
(22.895716 -16.634712 15.585958)
(-1.8282833 -17.394955 5.8526902)
(-1.129941 -10.750672 2.8781703)
(-3.3404398 -10.280817 2.8781703)
(-7.2332287 22.261589 10.151241)
(-8.7453852 26.915527 15.585958)
(-5.4049454 -16.634712 5.8526902)
(-7.2332287 -22.261589 10.151241)
(-11.703609 -20.271248 10.151241)
(-3.6455801 -34.685379 37.147594)
(-4.6076231 -34.480892 37.147594)
(-10.809891 -33.269424 36.147594)
(-22.541195 -26.496351 37.147594)
(-17.438219 -30.20388 37.147594)
(3.6455801 -34.685379 37.147594)
(4.6076231 -34.480892 37.147594)
(10.777411 -33.169464 37.147594)
(-31.957228 -14.228274 36.147594)
(-23.336891 -25.918243 37.147594)
(-27.557516 21.230764 37.147594)
(-15.978614 7.1141367 5.8526902)
(-14.150331 10.280817 5.8526902)
(-21.38356 9.5205736 10.151241)
(-34.21711 0 28.874521)
(28.300661 0 15.585958)
(31.258884 6.6442804 21.919319)
(11.703609 12.998176 5.8526902)
(8.7453852 15.147451 5.8526902)
(5.4049454 9.36164 2.8781703)
(23.407219 25.996351 36.147594)
(34.21711 0 28.874521)
(28.707397 19.648088 37.147594)
(22.895716 16.634712 15.585958)
(29.19438 12.998176 21.919319)
(-15.978614 -7.1141367 5.8526902)
(-17.108555 -3.6365356 5.8526902)
(-22.895716 -4.8666344 10.151241)
(-2.4467201 2.7173586 1.3576844)
(-5.4049454 9.36164 2.8781703)
(-7.2332287 8.0333138 2.8781703)
(-17.49077 0 5.8526902)
(-23.407219 0 10.151241)
(2.9582243 2.1492758 1.3576844)
(8.7453852 6.3538942 2.8781703)
(2.4467201 2.7173586 1.3576844)
(-8.7453852 15.147451 5.8526902)
(-11.703609 20.271248 10.151241)
(-11.703609 12.998176 5.8526902)
(-15.662487 17.394955 10.151241)
(-3.6455801 34.685379 37.147594)
(31.957228 14.228274 36.147594)
(31.86121 14.185525 37.147594)
(-22.541195 26.496351 37.147594)
(-23.336891 25.918243 37.147594)
(-23.407219 25.996351 36.147594)
(-2.4467201 23.278992 10.151241)
(-33.469383 7.1141367 28.874521)
(-31.258884 13.917353 28.874521)
(-34.21711 7.2730713 36.147594)
(-17.49077 30.294903 36.147594)
(34.981541 0 36.147594)
(34.21711 -6.2730713 37.147594)
(34.876438 0 37.147594)
(15.978614 -7.1141367 5.8526902)
(10.573668 -2.2475023 2.8781703)
(9.8753262 -4.3967781 2.8781703)
(-3.3404398 1.4872589 1.3576844)
(-9.8753262 4.3967781 2.8781703)
(-10.573668 2.2475023 2.8781703)
(-31.258884 6.6442804 21.919319)
(-7.2332287 -8.0333138 2.8781703)
(-8.7453852 -6.3538942 2.8781703)
(-11.703609 -12.998176 5.8526902)
(17.108555 -3.6365356 5.8526902)
(-10.777411 -33.169464 37.147594)
(-11.675916 -32.769424 37.147594)
(-31.86121 -14.185525 37.147594)
(-28.707397 -19.648088 37.147594)
(-34.21711 -6.2730713 37.147594)
(-31.957228 14.228274 36.147594)
(-31.86121 14.185525 37.147594)
(14.150331 24.50909 15.585958)
(15.662487 17.394955 10.151241)
(8.7453852 -6.3538942 2.8781703)
(3.3404398 -1.4872589 1.3576844)
(2.9582243 -2.1492758 1.3576844)
(15.978614 7.1141367 5.8526902)
(14.150331 10.280817 5.8526902)
(5.4049454 -16.634712 5.8526902)
(-25.853939 -18.783987 21.919319)
(-21.38356 -9.5205736 10.151241)
(10.809891 0 2.8781703)
(10.573668 2.2475023 2.8781703)
(3.6565666 0 1.3576844)
(2.9582243 28.145626 15.585958)
(-3.5766611 34.029663 28.874521)
(-17.438219 30.20388 37.147594)
(3.6455801 34.685379 37.147594)
(34.21711 6.2730713 37.147594)
(34.114304 7.2512188 37.147594)
(23.336891 -25.918243 37.147594)
(-8.7453852 6.3538942 2.8781703)
(8.7453852 -15.147451 5.8526902)
(3.3404398 1.4872589 1.3576844)
(22.541195 -26.496351 37.147594)
(33.810375 8.1866169 37.147594)
(34.114304 -7.2512188 37.147594)
(9.8753262 4.3967781 2.8781703)
(5.4049454 -9.36164 2.8781703)
(-8.7453852 -15.147451 5.8526902)
(1.129941 -10.750672 2.8781703)
(3.3404398 -10.280817 2.8781703)
(0.38221455 -3.6365356 1.3576844)
(1.129941 10.750672 2.8781703)
(-0.38221455 3.6365356 1.3576844)
(0.38221455 3.6365356 1.3576844)
(-1.129941 10.750672 2.8781703)
(2.4467201 23.278992 10.151241)
(-1.8282833 17.394955 5.8526902)
(7.2332287 22.261589 10.151241)
(-17.108555 3.6365356 5.8526902)
(-22.895716 4.8666344 10.151241)
(-3.3404398 31.782162 21.919319)
(21.38356 -9.5205736 10.151241)
(2.4467201 -2.7173586 1.3576844)
(1.8282833 -3.1666794 1.3576844)
(1.129941 -3.4776011 1.3576844)
(7.2332287 -8.0333138 2.8781703)
(3.5766611 -0.76024246 1.3576844)
(-5.4049454 16.634712 5.8526902)
(-34.114304 7.2512188 37.147594)
(-34.21711 6.2730713 37.147594)
(-33.810375 8.1866169 37.147594)
(-0.38221455 -3.6365356 1.3576844)
(-9.8753262 -4.3967781 2.8781703)
(1.8282833 -17.394955 5.8526902)
(-3.3404398 10.280817 2.8781703)
(11.703609 20.271248 10.151241)
(-2.9582243 28.145626 15.585958)
(-1.129941 -3.4776011 1.3576844)
(3.5766611 0.76024246 1.3576844)
(-34.981541 0 36.147594)
(7.2332287 8.0333138 2.8781703)
(-2.9582243 2.1492758 1.3576844)
(-1.8282833 3.1666794 1.3576844)
(-1.129941 3.4776011 1.3576844)
(-34.876438 0 37.147594)
(-3.5766611 0.76024246 1.3576844)
(23.336891 25.918243 37.147594)
(-2.9582243 -2.1492758 1.3576844)
(1.8282833 3.1666794 1.3576844)
(1.129941 3.4776011 1.3576844)
(22.541195 26.496351 37.147594)
(34.21711 7.2730713 37.147594)
(31.957228 14.228274 43.734913)
(31.957228 14.228274 37.147594)
(34.21711 7.2730713 43.734913)
(34.21711 7.2730713 46.634071)
(31.957228 14.228274 46.634071)
(34.981541 0 37.147594)
(34.981541 0 43.734913)
(34.981541 0 46.634071)
(28.300661 20.561634 43.734913)
(28.300661 20.561634 37.147594)
(28.300661 20.561634 46.634071)
(34.21711 -7.2730713 37.147594)
(34.21711 -7.2730713 43.734913)
(34.21711 -7.2730713 46.634071)
(23.407219 25.996351 43.734913)
(23.407219 25.996351 37.147594)
(23.407219 25.996351 46.634071)
(23.407219 -25.996351 37.147594)
(28.300661 -20.561634 43.734913)
(28.300661 -20.561634 37.147594)
(23.407219 -25.996351 43.734913)
(23.407219 -25.996351 46.634071)
(28.300661 -20.561634 46.634071)
(10.809891 -33.269424 37.147594)
(3.6565666 -34.789909 43.734913)
(10.809891 -33.269424 43.734913)
(3.6565666 -34.789909 37.147594)
(10.809891 -33.269424 46.634071)
(3.6565666 -34.789909 46.634071)
(-3.6565666 34.789909 37.147594)
(3.6565666 34.789909 43.734913)
(-3.6565666 34.789909 43.734913)
(3.6565666 34.789909 37.147594)
(-3.6565666 34.789909 46.634071)
(3.6565666 34.789909 46.634071)
(-31.957228 14.228274 43.734913)
(-28.300661 20.561634 37.147594)
(-28.300661 20.561634 43.734913)
(-31.957228 14.228274 37.147594)
(-28.300661 20.561634 46.634071)
(-31.957228 14.228274 46.634071)
(-3.6565666 -34.789909 37.147594)
(-10.809891 -33.269424 43.734913)
(-3.6565666 -34.789909 43.734913)
(-10.809891 -33.269424 37.147594)
(-3.6565666 -34.789909 46.634071)
(-10.809891 -33.269424 46.634071)
(10.809891 33.269424 37.147594)
(17.49077 30.294903 43.734913)
(10.809891 33.269424 43.734913)
(17.49077 30.294903 37.147594)
(10.809891 33.269424 46.634071)
(17.49077 30.294903 46.634071)
(-23.407219 -25.996351 43.734913)
(-28.300661 -20.561634 37.147594)
(-28.300661 -20.561634 43.734913)
(-23.407219 -25.996351 37.147594)
(-28.300661 -20.561634 46.634071)
(-23.407219 -25.996351 46.634071)
(-34.981541 0 43.734913)
(-34.21711 7.2730713 37.147594)
(-34.21711 7.2730713 43.734913)
(-34.981541 0 37.147594)
(-34.21711 7.2730713 46.634071)
(-34.981541 0 46.634071)