/*--------------------------------*- C++ -*----------------------------------*\
  =========                 |
  \\      /  F ield         | OpenFOAM: The Open Source CFD Toolbox
   \\    /   O peration     | Website:  https://openfoam.org
    \\  /    A nd           | Version:  12
     \\/     M anipulation  |
\*---------------------------------------------------------------------------*/
FoamFile
{
    format      ascii;
    class       polyBoundaryMesh;
    location    "constant/solid/polyMesh";
    object      boundary;
}
// * * * * * * * * * * * * * * * * * * * * * * * * * * * * * * * * * * * * * //

4
(
    solid_to_air1
    {
        type            mappedWall;
        inGroups        List<word> 1(wall);
        nFaces          71235;
        startFace       315492;
        neighbourRegion air1;
        neighbourPatch  air1_to_solid;
        transformType   none;
    }
    solid_to_water
    {
        type            mappedWall;
        inGroups        List<word> 1(wall);
        nFaces          63388;
        startFace       386727;
        neighbourRegion water;
        neighbourPatch  water_to_solid;
        transformType   none;
    }
    solid_to_air2
    {
        type            mappedWall;
        inGroups        List<word> 1(wall);
        nFaces          4432;
        startFace       450115;
        neighbourRegion air2;
        neighbourPatch  air2_to_solid;
        transformType   none;
    }
    solid_to_lid
    {
        type            mappedWall;
        inGroups        List<word> 1(wall);
        nFaces          4384;
        startFace       454547;
        neighbourRegion lid;
        neighbourPatch  lid_to_solid;
        transformType   none;
    }
)

// ************************************************************************* //
