/*--------------------------------*- C++ -*----------------------------------*\
  =========                 |
  \\      /  F ield         | OpenFOAM: The Open Source CFD Toolbox
   \\    /   O peration     | Website:  https://openfoam.org
    \\  /    A nd           | Version:  12
     \\/     M anipulation  |
\*---------------------------------------------------------------------------*/
FoamFile
{
    format      ascii;
    class       polyBoundaryMesh;
    location    "constant/water/polyMesh";
    object      boundary;
}
// * * * * * * * * * * * * * * * * * * * * * * * * * * * * * * * * * * * * * //

3
(
    water_to_air2
    {
        type            mappedWall;
        inGroups        List<word> 
2
(
wall
mapped
)
;
        nFaces          1330;
        startFace       97199;
        neighbourRegion air2;
        neighbourPatch  air2_to_water;
        transformType   none;
    }
    water_to_solid
    {
        type            mappedWall;
        inGroups        List<word> 
2
(
wall
mapped
)
;
        nFaces          15042;
        startFace       98529;
        neighbourRegion solid;
        neighbourPatch  solid_to_water;
        transformType   none;
    }
    procBoundary0to1
    {
        type            processor;
        inGroups        List<word> 1(processor);
        nFaces          1135;
        startFace       113571;
        matchTolerance  0.0001;
        myProcNo        0;
        neighbProcNo    1;
    }
)

// ************************************************************************* //
