/*--------------------------------*- C++ -*----------------------------------*\
  =========                 |
  \\      /  F ield         | OpenFOAM: The Open Source CFD Toolbox
   \\    /   O peration     | Website:  https://openfoam.org
    \\  /    A nd           | Version:  dev
     \\/     M anipulation  |
\*---------------------------------------------------------------------------*/
FoamFile
{
    format      ascii;
    class       volScalarField;
    location    "0/air";
    object      cellToRegion;
}
// * * * * * * * * * * * * * * * * * * * * * * * * * * * * * * * * * * * * * //

dimensions      [];

internalField   uniform 0;

boundaryField
{
    inlet
    {
        type            zeroGradient;
    }
    outlet
    {
        type            zeroGradient;
    }
    walls
    {
        type            zeroGradient;
    }
    air_to_water
    {
        type            extrapolatedCalculated;
        value           uniform 0;
    }
    air_to_solid
    {
        type            extrapolatedCalculated;
        value           uniform 0;
    }
    procBoundary10to1
    {
        type            processor;
        value           uniform 0;
    }
    procBoundary10to2
    {
        type            processor;
        value           uniform 0;
    }
    procBoundary10to3
    {
        type            processor;
        value           uniform 0;
    }
    procBoundary10to4
    {
        type            processor;
        value           uniform 0;
    }
    procBoundary10to5
    {
        type            processor;
        value           uniform 0;
    }
    procBoundary10to7
    {
        type            processor;
        value           uniform 0;
    }
    procBoundary10to9
    {
        type            processor;
        value           uniform 0;
    }
    procBoundary10to11
    {
        type            processor;
        value           uniform 0;
    }
}


// ************************************************************************* //
