/*--------------------------------*- C++ -*----------------------------------*\
  =========                 |
  \\      /  F ield         | OpenFOAM: The Open Source CFD Toolbox
   \\    /   O peration     | Website:  https://openfoam.org
    \\  /    A nd           | Version:  12
     \\/     M anipulation  |
\*---------------------------------------------------------------------------*/
FoamFile
{
    format      ascii;
    class       polyBoundaryMesh;
    location    "constant/air1/polyMesh";
    object      boundary;
}
// * * * * * * * * * * * * * * * * * * * * * * * * * * * * * * * * * * * * * //

6
(
    inlet
    {
        type            patch;
        nFaces          0;
        startFace       225018;
    }
    outlet
    {
        type            patch;
        nFaces          1326;
        startFace       225018;
    }
    walls
    {
        type            wall;
        inGroups        List<word> 1(wall);
        nFaces          8018;
        startFace       226344;
    }
    air1_to_solid
    {
        type            mappedWall;
        inGroups        List<word> 
2
(
wall
mapped
)
;
        nFaces          19149;
        startFace       234362;
        neighbourRegion solid;
        neighbourPatch  solid_to_air1;
        transformType   none;
    }
    air1_to_lid
    {
        type            mappedWall;
        inGroups        List<word> 
2
(
wall
mapped
)
;
        nFaces          6670;
        startFace       253511;
        neighbourRegion lid;
        neighbourPatch  lid_to_air1;
        transformType   none;
    }
    procBoundary1to0
    {
        type            processor;
        inGroups        List<word> 1(processor);
        nFaces          2034;
        startFace       260181;
        matchTolerance  0.0001;
        myProcNo        1;
        neighbProcNo    0;
    }
)

// ************************************************************************* //
