/*--------------------------------*- C++ -*----------------------------------*\
  =========                 |
  \\      /  F ield         | OpenFOAM: The Open Source CFD Toolbox
   \\    /   O peration     | Website:  https://openfoam.org
    \\  /    A nd           | Version:  12
     \\/     M anipulation  |
\*---------------------------------------------------------------------------*/
FoamFile
{
    format      ascii;
    class       extendedFeatureEdgeMesh;
    location    "constant/extendedFeatureEdgeMesh";
    object      pot_round.extendedFeatureEdgeMesh;
}
// * * * * * * * * * * * * * * * * * * * * * * * * * * * * * * * * * * * * * //

// points

7326
(
(2.7682219 34.660667 0.72730756)
(-2.2895708 34.312908 -2.0561626)
(-3.4981537 32.649437 2.5844579e-07)
(-2.1383553 30.274553 1.422828)
(1.5978613 35.417015 -1.4228275)
(2.2895708 34.312908 -2.0561626)
(2.3407211 35.249073 2.5844579e-07)
(-2.7682219 34.660667 -0.72730708)
(-2.7682219 34.660667 0.72730756)
(1.5662479 34.388931 -2.5996349)
(2.8300657 30.593275 2.5844579e-07)
(3.4981537 32.649437 2.5844579e-07)
(2.2895708 34.312908 2.056164)
(2.7682219 34.660667 -0.72730708)
(2.1383553 30.274553 1.422828)
(-2.3407211 35.249073 2.5844579e-07)
(-2.8300657 30.593275 2.5844579e-07)
(-1.5662479 34.388931 -2.5996349)
(1.5978613 35.417015 1.422828)
(2.1383553 30.274553 -1.4228275)
(-1.5978613 35.417015 -1.4228275)
(-1.5978613 35.417015 1.422828)
(-2.2895708 34.312908 2.056164)
(-2.1383553 30.274553 -1.4228275)
(-31.622181 -15.613305 0.72730756)
(-30.860638 -14.446321 1.422828)
(-25.68985 -17.475811 2.056164)
(-25.68985 -18.203117 1.422828)
(-25.68985 -18.203117 -1.4228275)
(-30.168926 -17.700562 -2.5996349)
(-26.677382 -19.092297 1.422828)
(-30.860638 -14.446321 -1.4228275)
(-24.777088 -16.324718 2.5844579e-07)
(-26.381559 -14.948877 -2.5996349)
(-26.381559 -14.22157 -2.0561626)
(-30.615965 -18.924355 2.5844579e-07)
(-31.622181 -17.036133 -0.72730708)
(-29.873104 -19.092297 -1.4228275)
(-29.356232 -12.997777 2.5844579e-07)
(-25.445177 -16.324718 -2.0561626)
(-26.381559 -17.700562 2.5996354)
(-30.168926 -14.948877 2.5996354)
(-30.168926 -14.22157 2.056164)
(-30.168926 -14.948877 -2.5996349)
(-29.873104 -19.092297 1.422828)
(-30.860638 -15.173627 2.056164)
(-27.194254 -12.997777 2.5844579e-07)
(-25.68985 -14.446321 -1.4228275)
(-26.381559 -18.427868 2.056164)
(-25.079521 -17.747547 2.5844579e-07)
(-24.928305 -17.036133 0.72730756)
(-29.356232 -19.651661 2.5844579e-07)
(-25.934521 -18.924355 2.5844579e-07)
(-25.985672 -16.811382 -2.5996349)
(-30.168926 -18.427868 -2.0561626)
(-31.470966 -17.747547 2.5844579e-07)
(-31.105309 -16.324718 -2.0561626)
(-30.168926 -14.22157 -2.0561626)
(-24.928305 -17.036133 -0.72730708)
(-30.564816 -16.811382 -2.5996349)
(-27.104881 -18.351845 -2.5996349)
(-27.104881 -18.351845 2.5996354)
(-25.68985 -17.475811 -2.0561626)
(-25.985672 -15.838056 -2.5996349)
(-26.381559 -17.700562 -2.5996349)
(-24.928305 -15.613305 -0.72730708)
(-26.677382 -19.092297 -1.4228275)
(-31.470966 -14.901892 2.5844579e-07)
(-30.860638 -18.203117 -1.4228275)
(-31.622181 -15.613305 -0.72730708)
(-29.445602 -18.351845 -2.5996349)
(-25.68985 -15.173627 -2.0561626)
(-30.860638 -17.475811 -2.0561626)
(-31.773396 -16.324718 2.5844579e-07)
(-30.564816 -15.838056 -2.5996349)
(-26.381559 -18.427868 -2.0561626)
(-30.860638 -15.173627 -2.0561626)
(-27.194254 -19.651661 2.5844579e-07)
(26.381559 -18.427868 -2.0561626)
(30.860638 -17.475811 -2.0561626)
(29.356232 -12.997777 2.5844579e-07)
(31.105309 -16.324718 -2.0561626)
(30.168926 -17.700562 -2.5996349)
(26.381559 -17.700562 2.5996354)
(25.68985 -18.203117 -1.4228275)
(29.873104 -19.092297 1.422828)
(30.168926 -14.948877 -2.5996349)
(26.677382 -19.092297 1.422828)
(29.356232 -19.651661 2.5844579e-07)
(30.860638 -14.446321 1.422828)
(31.773396 -16.324718 2.5844579e-07)
(30.860638 -15.173627 -2.0561626)
(25.445177 -16.324718 -2.0561626)
(27.194254 -12.997777 2.5844579e-07)
(25.68985 -15.173627 -2.0561626)
(25.68985 -17.475811 -2.0561626)
(27.194254 -19.651661 2.5844579e-07)
(24.777088 -16.324718 2.5844579e-07)
(27.104881 -18.351845 2.5996354)
(30.168926 -14.22157 -2.0561626)
(30.860638 -18.203117 -1.4228275)
(31.622181 -15.613305 -0.72730708)
(30.860638 -15.173627 2.056164)
(26.381559 -14.22157 -2.0561626)
(25.68985 -14.446321 -1.4228275)
(25.985672 -16.811382 -2.5996349)
(25.934521 -18.924355 2.5844579e-07)
(27.104881 -18.351845 -2.5996349)
(26.381559 -18.427868 2.056164)
(25.079521 -17.747547 2.5844579e-07)
(24.928305 -15.613305 -0.72730708)
(24.928305 -17.036133 0.72730756)
(25.68985 -17.475811 2.056164)
(29.873104 -19.092297 -1.4228275)
(30.615965 -18.924355 2.5844579e-07)
(31.470966 -17.747547 2.5844579e-07)
(30.168926 -14.948877 2.5996354)
(31.622181 -15.613305 0.72730756)
(30.168926 -14.22157 2.056164)
(31.470966 -14.901892 2.5844579e-07)
(24.928305 -17.036133 -0.72730708)
(25.985672 -15.838056 -2.5996349)
(29.445602 -18.351845 -2.5996349)
(26.677382 -19.092297 -1.4228275)
(25.68985 -18.203117 1.422828)
(31.622181 -17.036133 -0.72730708)
(30.860638 -14.446321 -1.4228275)
(26.381559 -14.948877 -2.5996349)
(30.564816 -16.811382 -2.5996349)
(30.168926 -18.427868 -2.0561626)
(30.564816 -15.838056 -2.5996349)
(26.381559 -17.700562 -2.5996349)
(0 36.141201 1.1049027)
(-13.032473 33.272816 0.98568106)
(-12.309772 33.82082 0.64376307)
(-11.865219 33.986111 0.89761114)
(-11.599756 33.874008 0.75511122)
(-12.756565 33.661686 0.89761114)
(-12.026535 33.042633 0.025481693)
(-11.712093 33.565403 0.30425406)
(-12.60344 33.240978 0.30425406)
(-12.887864 33.405174 0.75511122)
(-11.403901 33.86557 0.98568106)
(-23.626492 26.808853 0.98568106)
(-23.134804 27.570986 0.64376307)
(-23.231115 27.685766 1.1049027)
(-22.773592 27.878353 0.89761114)
(-22.485798 27.863806 0.75511122)
(-23.500225 27.268637 0.89761114)
(-22.602491 26.936602 0.025481693)
(-22.485811 27.535389 0.30425406)
(-23.212444 26.925671 0.30425406)
(-23.535873 26.982687 0.75511122)
(-22.298868 27.922861 0.98568106)
(-31.370808 17.111345 0.98568106)
(-31.169437 17.995684 0.64376307)
(-31.299198 18.070601 1.1049027)
(-30.935135 18.408054 0.89761114)
(-30.659721 18.492817 0.75511122)
(-31.40941 17.586586 0.89761114)
(-30.452255 17.581617 0.025481693)
(-30.547409 18.1842 0.30425406)
(-31.021685 17.362732 0.30425406)
(-31.34511 17.305689 0.75511122)
(-30.504263 18.612244 0.98568106)
(-35.331341 5.349956 0.98568106)
(-35.444576 6.249835 0.64376307)
(-35.592133 6.2758536 1.1049027)
(-35.365444 6.717474 0.89761114)
(-35.135632 6.8913202 0.75511122)
(-35.530159 5.7833333 0.89761114)
(-34.629028 6.1060319 0.025481693)
(-34.924538 6.6397305 0.30425406)
(-35.089252 5.7055898 0.30425406)
(-35.373661 5.5413704 0.75511122)
(-35.030392 7.056716 0.98568106)
(-35.030392 -7.056716 0.98568106)
(-35.444576 -6.249835 0.64376307)
(-35.592133 -6.2758536 1.1049027)
(-35.530159 -5.7833333 0.89761114)
(-35.373661 -5.5413704 0.75511122)
(-35.365444 -6.717474 0.89761114)
(-34.629028 -6.1060319 0.025481693)
(-35.089252 -5.7055898 0.30425406)
(-34.924538 -6.6397305 0.30425406)
(-35.135632 -6.8913202 0.75511122)
(-35.331341 -5.349956 0.98568106)
(-31.299198 -18.070601 1.1049027)
(-22.298868 -27.922861 0.98568106)
(-23.134804 -27.570986 0.64376307)
(-23.231115 -27.685766 1.1049027)
(-23.454039 -27.498711 36.269474)
(-23.500225 -27.268637 0.89761114)
(-23.535873 -26.982687 0.75511122)
(-22.773592 -27.878353 0.89761114)
(-22.602491 -26.936602 0.025481693)
(-23.212444 -26.925671 0.30425406)
(-22.485811 -27.535389 0.30425406)
(-22.485798 -27.863806 0.75511122)
(-23.626492 -26.808853 0.98568106)
(-11.403901 -33.86557 0.98568106)
(-12.309772 -33.82082 0.64376307)
(-12.756565 -33.661686 0.89761114)
(-12.887864 -33.405174 0.75511122)
(-11.865219 -33.986111 0.89761114)
(-12.026535 -33.042633 0.025481693)
(-12.60344 -33.240978 0.30425406)
(-11.712093 -33.565403 0.30425406)
(-11.599756 -33.874008 0.75511122)
(-13.032473 -33.272816 0.98568106)
(0.86654472 -35.723587 0.98568106)
(0 -35.991367 0.64376307)
(0 -36.141201 1.1049027)
(-0.47427559 -35.99464 0.89761114)
(-0.68538761 -35.798508 0.75511122)
(0.47427559 -35.99464 0.89761114)
(0 -35.163235 0.025481693)
(-0.47427559 -35.546932 0.30425406)
(0.47427559 -35.546932 0.30425406)
(0.68538761 -35.798508 0.75511122)
(-0.86654472 -35.723587 0.98568106)
(13.032473 -33.272816 0.98568106)
(12.309772 -33.82082 0.64376307)
(11.865219 -33.986111 0.89761114)
(11.599756 -33.874008 0.75511122)
(12.756565 -33.661686 0.89761114)
(12.026535 -33.042633 0.025481693)
(11.712093 -33.565403 0.30425406)
(12.60344 -33.240978 0.30425406)
(12.887864 -33.405174 0.75511122)
(11.403901 -33.86557 0.98568106)
(23.626492 -26.808853 0.98568106)
(23.134804 -27.570986 0.64376307)
(23.231115 -27.685766 1.1049027)
(22.773592 -27.878353 0.89761114)
(22.485798 -27.863806 0.75511122)
(23.500225 -27.268637 0.89761114)
(22.602491 -26.936602 0.025481693)
(22.485811 -27.535389 0.30425406)
(23.212444 -26.925671 0.30425406)
(23.535873 -26.982687 0.75511122)
(22.298868 -27.922861 0.98568106)
(31.299198 -18.070601 1.1049027)
(31.153694 -18.322618 36.269474)
(35.331341 -5.349956 0.98568106)
(35.444576 -6.249835 0.64376307)
(35.592133 -6.2758536 1.1049027)
(35.541603 -6.5624385 36.269474)
(35.365444 -6.717474 0.89761114)
(35.135632 -6.8913202 0.75511122)
(35.530159 -5.7833333 0.89761114)
(34.629028 -6.1060319 0.025481693)
(34.924538 -6.6397305 0.30425406)
(35.089252 -5.7055898 0.30425406)
(35.373661 -5.5413704 0.75511122)
(35.030392 -7.056716 0.98568106)
(35.030392 7.056716 0.98568106)
(35.444576 6.249835 0.64376307)
(35.592133 6.2758536 1.1049027)
(35.530159 5.7833333 0.89761114)
(35.373661 5.5413704 0.75511122)
(35.365444 6.717474 0.89761114)
(34.629028 6.1060319 0.025481693)
(35.089252 5.7055898 0.30425406)
(34.924538 6.6397305 0.30425406)
(35.135632 6.8913202 0.75511122)
(35.331341 5.349956 0.98568106)
(30.504263 18.612244 0.98568106)
(31.169437 17.995684 0.64376307)
(31.299198 18.070601 1.1049027)
(31.40941 17.586586 0.89761114)
(31.34511 17.305689 0.75511122)
(30.935135 18.408054 0.89761114)
(30.452255 17.581617 0.025481693)
(31.021685 17.362732 0.30425406)
(30.547409 18.1842 0.30425406)
(30.659721 18.492817 0.75511122)
(31.370808 17.111345 0.98568106)
(22.298868 27.922861 0.98568106)
(23.134804 27.570986 0.64376307)
(23.231115 27.685766 1.1049027)
(23.454039 27.498711 36.269474)
(23.500225 27.268637 0.89761114)
(23.535873 26.982687 0.75511122)
(22.773592 27.878353 0.89761114)
(22.602491 26.936602 0.025481693)
(23.212444 26.925671 0.30425406)
(22.485811 27.535389 0.30425406)
(22.485798 27.863806 0.75511122)
(23.626492 26.808853 0.98568106)
(11.403901 33.86557 0.98568106)
(12.309772 33.82082 0.64376307)
(12.756565 33.661686 0.89761114)
(12.887864 33.405174 0.75511122)
(11.865219 33.986111 0.89761114)
(12.026535 33.042633 0.025481693)
(12.60344 33.240978 0.30425406)
(11.712093 33.565403 0.30425406)
(11.599756 33.874008 0.75511122)
(13.032473 33.272816 0.98568106)
(-13.313263 33.167473 33.903355)
(-11.236037 -34.017826 33.252361)
(13.313263 33.167473 33.903355)
(13.313263 -33.167473 33.903355)
(-7.5005536 -2.7299783 1.0998021)
(11.236037 -34.017826 33.252361)
(-3.9907691 6.9122148 1.0914143)
(11.236037 34.017826 33.252361)
(6.1145072 -5.130681 1.0998023)
(-11.236037 34.017826 33.252361)
(3.9907691 6.9122148 1.0914143)
(-6.1145072 -5.130681 1.0998023)
(-1.3860463 7.8606591 1.0998021)
(1.3860463 -7.8606591 1.0998021)
(6.1145072 5.130681 1.0998023)
(7.5005536 -2.7299783 1.0998021)
(1.3860463 7.8606591 1.0998021)
(-3.9907691 -6.9122148 1.0914143)
(-13.313263 -33.167473 33.903355)
(7.5005536 2.7299783 1.0998021)
(-6.1145072 5.130681 1.0998023)
(-1.3860463 -7.8606591 1.0998021)
(3.9907691 -6.9122148 1.0914143)
(-7.5005536 2.7299783 1.0998021)
(18.936838 21.03149 15.585958)
(18.936838 13.758418 10.151241)
(-9.8753262 -30.393129 21.919319)
(9.8753262 -30.393129 21.919319)
(-18.936838 -21.03149 15.585958)
(27.682224 -5.884038 15.585958)
(-18.936838 13.758418 10.151241)
(27.682224 -20.112312 28.874521)
(-27.682224 -20.112312 28.874521)
(-9.8753262 30.393129 21.919319)
(18.936838 -13.758418 10.151241)
(27.682224 5.884038 15.585958)
(-18.936838 -13.758418 10.151241)
(9.8753262 30.393129 21.919319)
(27.682224 20.112312 28.874521)
(31.957228 0 21.919319)
(18.936838 -21.03149 15.585958)
(-27.682224 20.112312 28.874521)
(-31.957228 0 21.919319)
(-18.936838 21.03149 15.585958)
(-27.682224 -5.884038 15.585958)
(-27.682224 5.884038 15.585958)
(15.613226 20.662746 11.338117)
(14.622008 25.326061 14.900571)
(17.666309 23.114246 14.900571)
(-14.316745 32.930336 35.73555)
(-18.073795 31.304733 36.147594)
(-14.36285 32.956955 36.147594)
(-14.295033 32.917797 35.541504)
(-14.166469 32.929337 35.142097)
(-14.108468 32.934544 34.961903)
(-13.9048 32.983833 34.600166)
(-13.811313 33.006458 34.434124)
(-13.320396 33.136997 33.664783)
(-13.547357 33.089329 34.131298)
(-13.416552 33.130394 33.981232)
(-17.678841 30.620649 28.632086)
(-32.30085 -14.381264 28.632086)
(-34.570461 -7.4554977 28.807646)
(-34.551414 -7.4547362 28.632086)
(-35.357681 -7.5155067 36.147594)
(-34.765514 -7.4196825 30.476467)
(-34.802879 -7.4128222 30.796141)
(-34.826542 -7.4026093 30.981237)
(30.395447 -18.868547 34.310108)
(29.244017 -21.247021 36.147594)
(30.300756 -18.873547 33.5495)
(30.619976 -18.804094 35.862038)
(30.652765 -18.785955 36.046951)
(30.671038 -18.775349 36.147594)
(31.415401 -16.660303 32.197609)
(32.30085 -14.381264 28.632086)
(33.022469 -14.70255 36.147594)
(31.331123 -16.559303 31.016247)
(31.432245 -16.68049 32.433735)
(31.538364 -16.888956 34.310108)
(31.59481 -17.115629 35.862041)
(31.595497 -17.153095 36.046951)
(31.595448 -17.174223 36.147594)
(22.22732 -24.395014 21.445044)
(19.879646 -21.6313 15.185857)
(26.715738 -19.41012 21.445044)
(-10.704637 33.453762 27.964727)
(-10.701159 33.444 27.932938)
(-10.701971 33.446281 27.940359)
(-3.4517879 32.841568 21.445044)
(-10.706517 33.458717 27.980934)
(-10.798358 33.613724 28.509232)
(-10.696235 33.429855 27.88695)
(-10.013041 31.44693 21.445044)
(9.0368977 -15.652367 4.8428597)
(12.09373 -16.478399 6.6436782)
(12.09373 -20.946955 9.2846966)
(10.500834 -14.588755 4.8428597)
(23.658905 17.189201 14.900571)
(19.879646 21.6313 15.185857)
(26.715738 19.41012 21.445044)
(19.772644 21.505333 14.900571)
(-28.604965 20.782722 28.632086)
(-23.73786 26.204786 28.738329)
(-23.731697 26.195034 28.632086)
(-29.244017 21.247021 36.147594)
(-2.4883175 10.828302 1.7691891)
(-1.3634441 11.378577 1.9054524)
(-1.3649043 11.067092 1.7691891)
(-4.0638881 15.095419 3.7844033)
(-10.701159 -33.444 27.932938)
(-10.704637 -33.453762 27.964727)
(-10.701971 -33.446281 27.940359)
(-10.706517 -33.458717 27.980934)
(-3.4517879 -32.841568 21.445044)
(-10.798358 -33.613724 28.509232)
(-10.696235 -33.429855 27.88695)
(-10.013041 -31.44693 21.445044)
(19.568066 -21.261967 14.548941)
(16.505358 -17.618513 9.2846966)
(19.568066 -14.217032 9.2846966)
(-25.701077 3.1900766 11.338117)
(-29.244017 0 14.900571)
(-28.850679 3.7423494 14.900571)
(-24.18746 0 9.2846966)
(-20.614037 2.2872424 6.863112)
(-18.073795 0 4.8428597)
(-23.885628 2.871743 9.2846966)
(-26.715738 -11.894612 14.900571)
(-32.118755 -7.0297155 21.23167)
(-28.510487 -6.3709445 14.900571)
(35.357681 0 28.632086)
(35.116516 4.8508263 31.188396)
(36.147591 0 36.147594)
(35.037834 4.8049006 30.393845)
(34.858654 4.7479372 28.632086)
(29.244017 21.247021 36.147594)
(30.395447 18.868547 34.310108)
(30.300756 18.873547 33.5495)
(30.619976 18.804094 35.862038)
(30.652765 18.785955 36.046951)
(30.671038 18.775349 36.147594)
(33.022469 14.70255 36.147594)
(31.415401 16.660303 32.197609)
(31.432245 16.68049 32.433735)
(31.595497 17.153095 36.046951)
(31.595448 17.174223 36.147594)
(31.59481 17.115629 35.862041)
(31.538364 16.888956 34.310108)
(32.30085 14.381264 28.632086)
(31.331123 16.559303 31.016247)
(21.501221 27.781725 28.477358)
(17.678841 30.620649 28.632086)
(21.541161 27.81451 28.632086)
(21.497761 27.777712 28.461016)
(21.492603 27.771477 28.436024)
(21.491156 27.769726 28.429007)
(21.481691 27.758116 28.382725)
(20.98493 27.144705 25.94338)
(16.511234 28.598297 21.445044)
(18.503231 24.124201 17.180313)
(20.068863 26.013529 21.445044)
(24.18746 0 9.2846966)
(25.701077 3.1900766 11.338117)
(29.244017 0 14.900571)
(23.885628 2.871743 9.2846966)
(-22.693287 5.3426042 8.6846237)
(-22.096344 9.8379259 9.2846966)
(-16.511234 7.3512745 4.8428597)
(-23.510759 5.4848032 9.2846966)
(20.614037 -2.2872424 6.863112)
(17.884649 -1.7996114 4.8428597)
(18.073795 0 4.8428597)
(-22.096344 -9.8379259 9.2846966)
(-22.693287 -5.3426042 8.6846237)
(-16.511234 -7.3512745 4.8428597)
(-23.510759 -5.4848032 9.2846966)
(-17.678841 -30.620649 28.632086)
(-13.356758 -32.956074 32.22506)
(-13.356635 -32.982201 32.452904)
(-13.320396 -33.136997 33.664783)
(-13.357751 -32.746105 30.393847)
(-13.317492 -32.562447 28.632086)
(-11.168223 -33.987438 32.722916)
(-11.077335 -34.092533 33.287762)
(-11.002421 -33.861973 30.981224)
(-21.759197 27.986383 31.188396)
(-21.680082 27.941204 30.393848)
(-21.541161 27.81451 28.632086)
(15.104959 4.0282793 3.7844026)
(16.511234 7.3512745 4.8428597)
(17.459692 4.4322224 4.8428597)
(11.853559 5.277544 2.5728781)
(10.535858 4.5085111 1.905452)
(7.0581579 10.524159 2.4648304)
(9.0368977 15.652367 4.8428597)
(10.500834 14.588755 4.8428597)
(5.5851097 9.6736946 1.7691891)
(35.357681 7.5155067 36.147594)
(22.267736 24.441525 21.6343)
(28.604965 20.782722 28.632086)
(22.22732 24.395014 21.445044)
(23.824118 26.459364 30.981236)
(24.18746 26.862896 36.147594)
(23.821131 26.433765 30.796144)
(23.808392 26.397978 30.476471)
(23.74188 26.211149 28.80765)
(23.73786 26.204786 28.738329)
(-16.505358 17.618513 9.2846966)
(-19.568066 14.217032 9.2846966)
(-19.568066 21.261967 14.548941)
(29.706594 18.75218 28.442593)
(29.76535 18.772877 28.632086)
(29.701969 18.749592 28.426195)
(29.695 18.745502 28.401186)
(29.693031 18.744347 28.394123)
(29.680168 18.736671 28.347775)
(28.350798 17.937906 23.549072)
(31.066517 16.335443 28.347775)
(30.487171 16.014305 26.298206)
(31.079596 16.342745 28.394123)
(31.081581 16.343872 28.401186)
(31.088608 16.347864 28.426195)
(31.093161 16.350574 28.442593)
(31.140463 16.391111 28.632086)
(28.850679 3.7423494 14.900571)
(31.078859 4.1211219 18.828844)
(10.013041 -31.44693 21.445044)
(3.4517879 -32.841568 21.445044)
(8.7934322 -28.031929 15.185857)
(-8.3262081 -18.995899 6.8631115)
(-9.0368977 -15.652367 4.8428597)
(-7.3838153 -16.388367 4.8428597)
(-3.0568314 -29.083815 14.900571)
(-1.3474158 -32.841568 21.445044)
(-1.3241932 -29.083815 14.900571)
(3.0568314 -29.083815 14.900571)
(1.3474158 -32.841568 21.445044)
(1.3241932 -29.083815 14.900571)
(23.74188 -26.211149 28.80765)
(23.73786 -26.204786 28.738329)
(23.808392 -26.397978 30.476471)
(23.821131 -26.433765 30.796144)
(23.824118 -26.459364 30.981236)
(24.18746 -26.862896 36.147594)
(30.487171 -16.014305 26.298206)
(30.167526 -13.431448 21.445044)
(29.115339 -15.253888 21.445044)
(28.350798 -17.937906 23.549072)
(27.767925 -17.587681 21.445044)
(-34.780079 -4.7246332 28.382723)
(-35.357681 0 28.632086)
(-33.354675 -4.4988256 23.922735)
(-34.794865 -4.7270231 28.429007)
(-34.797108 -4.7274022 28.436024)
(-34.805084 -4.7287512 28.461016)
(-34.810291 -4.7297421 28.477356)
(-34.858654 -4.7479372 28.632086)
(-5.058938 -9.9079609 1.7691891)
(-5.5851097 -9.6736946 1.7691891)
(-4.3878183 -8.0257645 1.3433501)
(-32.118755 7.0297155 21.23167)
(-30.167526 13.431448 21.445044)
(-26.715738 11.894612 14.900571)
(-32.24036 7.0519176 21.445044)
(-14.622008 -25.326061 14.900571)
(-17.666309 -23.114246 14.900571)
(-15.613226 -20.662746 11.338117)
(-12.643268 -0.85046434 2.4648302)
(-17.884649 -1.7996114 4.8428597)
(-11.17022 0 1.7691891)
(-4.3878183 8.0257645 1.3433501)
(-5.5851097 9.6736946 1.7691891)
(-5.058938 9.9079609 1.7691891)
(5.058938 -9.9079609 1.7691891)
(4.3878183 -8.0257645 1.3433501)
(5.5851097 -9.6736946 1.7691891)
(4.8914285 17.336647 4.8428597)
(1.889226 17.974785 4.8428597)
(6.7198133 22.324266 8.6846256)
(6.0510774 9.3351498 1.7691891)
(-14.622008 25.326061 14.900571)
(-11.640555 28.086369 17.180315)
(-11.18437 26.856596 14.900571)
(-16.511234 28.598297 21.445044)
(3.0568314 29.083815 14.900571)
(8.7934322 28.031929 15.185857)
(8.7378445 27.876278 14.900571)
(3.4517879 32.841568 21.445044)
(-22.427551 28.128208 36.044369)
(-22.451899 28.123856 36.147594)
(-22.343184 28.141712 35.674469)
(-22.109407 28.12611 34.239136)
(-21.885105 28.058285 32.452904)
(-21.862419 28.04533 32.22506)
(-23.699051 27.202936 36.032963)
(-24.18746 26.862896 36.147594)
(-23.68199 27.230141 36.147594)
(-23.750593 27.118996 35.673122)
(-23.826077 26.897417 34.382641)
(-23.849874 26.665684 32.722919)
(-23.824118 26.459364 30.981236)
(21.759197 27.986383 31.188396)
(21.680082 27.941204 30.393848)
(18.073795 31.304733 36.147594)
(13.309069 32.511467 28.477358)
(13.317492 32.562447 28.632086)
(13.307323 32.506462 28.461016)
(13.304502 32.498878 28.436024)
(13.303711 32.49675 28.429007)
(13.298387 32.48275 28.382723)
(13.015539 31.745834 25.94338)
(-1.3865674 35.102753 28.442593)
(-3.6958838 35.163986 28.632086)
(-1.3751129 35.163986 28.632086)
(-1.3866384 35.097458 28.426197)
(-1.3865812 35.089375 28.401188)
(-1.3865651 35.087093 28.394125)
(-1.3863506 35.072113 28.347775)
(-1.3474158 32.841568 21.445044)
(3.6958838 35.163986 28.632086)
(1.3865674 35.102753 28.442593)
(1.3751129 35.163986 28.632086)
(1.3866384 35.097458 28.426197)
(1.3865812 35.089375 28.401188)
(1.3865651 35.087093 28.394125)
(1.3863506 35.072113 28.347775)
(1.3474158 32.841568 21.445044)
(14.340627 32.944122 35.948986)
(14.36285 32.956955 36.147594)
(14.295033 32.917797 35.541504)
(14.235747 32.923119 35.357323)
(14.108468 32.934544 34.961903)
(14.013267 32.957584 34.792816)
(13.811313 33.006458 34.434124)
(13.320396 33.136997 33.664783)
(13.678402 33.048183 34.281639)
(13.416552 33.130394 33.981232)
(23.699051 27.202936 36.032963)
(23.68199 27.230141 36.147594)
(23.750593 27.118996 35.673122)
(23.826077 26.897417 34.382641)
(23.849874 26.665684 32.722919)
(22.427551 28.128208 36.044369)
(22.451899 28.123856 36.147594)
(22.343184 28.141712 35.674469)
(22.109407 28.12611 34.239136)
(21.885105 28.058285 32.452904)
(21.862419 28.04533 32.22506)
(23.602985 25.978138 27.88695)
(23.612774 25.989475 27.93294)
(23.614342 25.991318 27.940359)
(23.61949 25.99737 27.964729)
(23.622841 26.001474 27.980936)
(23.731697 26.195034 28.632086)
(1.3634441 -11.378577 1.9054524)
(2.4883175 -10.828302 1.7691891)
(4.0638881 -15.095419 3.7844033)
(1.3649043 -11.067092 1.7691891)
(32.118755 -7.0297155 21.23167)
(32.24036 -7.0519176 21.445044)
(26.715738 -11.894612 14.900571)
(33.354675 -4.4988256 23.922735)
(33.022469 0 21.445044)
(32.562809 -4.3733811 21.445044)
(22.096344 9.8379259 9.2846966)
(16.897358 8.218523 5.4039302)
(21.491856 10.884931 9.2846966)
(20.172554 13.170028 9.2846966)
(18.734055 12.343811 8.0728064)
(19.568066 14.217032 9.2846966)
(24.525225 15.688692 14.900571)
(25.385386 16.192419 16.63656)
(26.715738 11.894612 14.900571)
(28.055618 14.650758 19.321503)
(30.167526 13.431448 21.445044)
(25.849419 13.395123 14.900571)
(28.510487 6.3709445 14.900571)
(32.118755 7.0297155 21.23167)
(19.568066 21.261967 14.548941)
(14.622008 -10.62351 4.8428597)
(18.734055 -12.343811 8.0728064)
(14.900144 -10.141765 4.8428597)
(16.897358 -8.218523 5.4039302)
(16.233099 -7.8330207 4.8428597)
(16.511234 -7.3512745 4.8428597)
(9.1444225 -0.21291964 1.3433496)
(7.9815383 0 1.0914142)
(11.17022 0 1.7691891)
(15.104959 -4.0282793 3.7844026)
(17.459692 -4.4322224 4.8428597)
(11.853559 -5.277544 2.5728781)
(10.535858 -4.5085111 1.905452)
(28.604965 -20.782722 28.632086)
(23.602985 -25.978138 27.88695)
(22.267736 -24.441525 21.6343)
(23.612774 -25.989475 27.93294)
(23.614342 -25.991318 27.940359)
(23.61949 -25.99737 27.964729)
(23.622841 -26.001474 27.980936)
(23.731697 -26.195034 28.632086)
(13.309069 -32.511467 28.477358)
(17.678841 -30.620649 28.632086)
(13.317492 -32.562447 28.632086)
(13.307323 -32.506462 28.461016)
(13.304502 -32.498878 28.436024)
(13.303711 -32.49675 28.429007)
(13.298387 -32.48275 28.382723)
(13.015539 -31.745834 25.94338)
(16.511234 -28.598297 21.445044)
(-3.6958838 -35.163986 28.632086)
(-1.3865674 -35.102753 28.442593)
(-1.3751129 -35.163986 28.632086)
(-1.3866384 -35.097458 28.426197)
(-1.3865812 -35.089375 28.401188)
(-1.3865651 -35.087093 28.394125)
(-1.3863506 -35.072113 28.347775)
(1.3865674 -35.102753 28.442593)
(3.6958838 -35.163986 28.632086)
(1.3751129 -35.163986 28.632086)
(1.3866384 -35.097458 28.426197)
(1.3865812 -35.089375 28.401188)
(1.3865651 -35.087093 28.394125)
(1.3863506 -35.072113 28.347775)
(31.066517 -16.335443 28.347775)
(31.079596 -16.342745 28.394123)
(31.081581 -16.343872 28.401186)
(31.088608 -16.347864 28.426195)
(31.093161 -16.350574 28.442593)
(31.140463 -16.391111 28.632086)
(29.680168 -18.736671 28.347775)
(29.693031 -18.744347 28.394123)
(29.695 -18.745502 28.401186)
(29.701969 -18.749592 28.426195)
(29.706594 -18.75218 28.442593)
(29.76535 -18.772877 28.632086)
(18.073795 -31.304733 36.147594)
(22.427551 -28.128208 36.044369)
(22.451899 -28.123856 36.147594)
(22.343184 -28.141712 35.674469)
(22.109407 -28.12611 34.239136)
(21.885105 -28.058285 32.452904)
(21.862419 -28.04533 32.22506)
(21.759197 -27.986383 31.188396)
(23.699051 -27.202936 36.032963)
(23.68199 -27.230141 36.147594)
(23.750593 -27.118996 35.673122)
(23.826077 -26.897417 34.382641)
(23.849874 -26.665684 32.722919)
(14.316745 -32.930336 35.73555)
(14.36285 -32.956955 36.147594)
(14.295033 -32.917797 35.541504)
(14.166469 -32.929337 35.142097)
(14.108468 -32.934544 34.961903)
(13.9048 -32.983833 34.600166)
(13.811313 -33.006458 34.434124)
(13.320396 -33.136997 33.664783)
(13.547357 -33.089329 34.131298)
(13.416552 -33.130394 33.981232)
(-16.505358 -17.618513 9.2846966)
(-19.568066 -21.261967 14.548941)
(-19.568066 -14.217032 9.2846966)
(-28.055618 -14.650758 19.321503)
(-25.849419 -13.395123 14.900571)
(-30.167526 -13.431448 21.445044)
(-23.658905 -17.189201 14.900571)
(-25.385386 -16.192419 16.63656)
(-24.525225 -15.688692 14.900571)
(-24.49641 -12.615716 13.15686)
(-21.113928 -13.714751 10.499269)
(-20.614037 -2.2872424 6.863112)
(-14.622008 -10.62351 4.8428597)
(-14.900144 -10.141765 4.8428597)
(-13.826352 -9.5283833 4.289247)
(-16.233099 -7.8330207 4.8428597)
(-11.853559 -5.277544 2.5728781)
(-17.459692 4.4322224 4.8428597)
(-33.022469 -14.70255 36.147594)
(-31.415401 -16.660303 32.197609)
(-31.331123 -16.559303 31.016247)
(-31.432245 -16.68049 32.433735)
(-31.538364 -16.888956 34.310108)
(-31.59481 -17.115629 35.862041)
(-31.595497 -17.153095 36.046951)
(-31.595448 -17.174223 36.147594)
(-30.652765 -18.785955 36.046951)
(-29.244017 -21.247021 36.147594)
(-30.671038 -18.775349 36.147594)
(-30.619976 -18.804094 35.862038)
(-30.395447 -18.868547 34.310108)
(-30.300756 -18.873547 33.5495)
(-35.037834 -4.8049006 30.393845)
(-35.116516 -4.8508263 31.188396)
(-36.147591 0 36.147594)
(-23.891991 -5.5523715 9.7129087)
(14.622008 10.62351 4.8428597)
(9.2108812 8.8653288 2.5159452)
(12.568263 12.904426 4.8428597)
(-12.09373 16.478399 6.6436782)
(-14.429816 19.249689 9.2846966)
(-12.09373 20.946955 9.2846966)
(-23.891991 5.5523715 9.7129087)
(2.5282774 24.054958 9.2846966)
(7.1375003 23.467257 9.7129078)
(7.0054011 23.103317 9.2846966)
(12.09373 16.478399 6.6436782)
(12.09373 20.946955 9.2846966)
(14.429816 19.249689 9.2846966)
(-12.493945 30.386909 21.445044)
(11.002421 33.861973 30.981224)
(10.303136 34.284672 33.545803)
(10.676194 34.187138 33.375141)
(10.883989 34.138134 33.32988)
(11.077335 34.092533 33.287762)
(10.134344 34.3288 33.623016)
(9.77981 34.432533 33.888523)
(9.6560163 34.468754 33.981232)
(10.981748 33.846588 30.796139)
(10.957124 33.817661 30.476467)
(10.828581 33.666645 28.807648)
(10.819715 33.649769 28.632086)
(9.3572989 34.568951 34.324684)
(12.493945 30.386909 21.445044)
(-18.734055 -12.343811 8.0728064)
(-16.897358 -8.218523 5.4039302)
(-10.266834 -4.3515038 1.7691891)
(-10.621744 -3.2592051 1.7691891)
(28.055618 -14.650758 19.321503)
(25.385386 -16.192419 16.63656)
(23.658905 -17.189201 14.900571)
(35.116516 -4.8508263 31.188396)
(35.037834 -4.8049006 30.393845)
(34.858654 -4.7479372 28.632086)
(22.693287 5.3426042 8.6846237)
(23.510759 5.4848032 9.2846966)
(33.354675 4.4988256 23.922735)
(32.562809 4.3733811 21.445044)
(21.113928 13.714751 10.499269)
(24.49641 12.615716 13.15686)
(14.900144 10.141765 4.8428597)
(16.233099 7.8330207 4.8428597)
(23.891991 5.5523715 9.7129087)
(30.16185 18.880878 32.433731)
(30.135946 18.876383 32.197609)
(29.929398 18.840548 30.314928)
(31.281092 16.499344 30.314926)
(13.826352 9.5283833 4.289247)
(23.891991 -5.5523715 9.7129087)
(22.096344 -9.8379259 9.2846966)
(23.510759 -5.4848032 9.2846966)
(13.826352 -9.5283833 4.289247)
(-5.5851097 -11.374622 2.4648297)
(-12.09373 -20.946955 9.2846966)
(-14.429816 -19.249689 9.2846966)
(-12.09373 -16.478399 6.6436782)
(11.18437 -26.856596 14.900571)
(10.087852 -23.852825 11.338118)
(14.622008 -25.326061 14.900571)
(1.889226 -17.974785 4.8428597)
(4.8914285 -17.336647 4.8428597)
(1.356292 -12.904261 2.5728807)
(10.798358 -33.613724 28.509232)
(10.819715 -33.649769 28.632086)
(13.356758 -32.956074 32.22506)
(13.357751 -32.746105 30.393847)
(13.356635 -32.982201 32.452904)
(11.077335 -34.092533 33.287762)
(11.168223 -33.987438 32.722916)
(11.002421 -33.861973 30.981224)
(25.849419 -13.395123 14.900571)
(24.525225 -15.688692 14.900571)
(22.693287 -5.3426042 8.6846237)
(30.16185 -18.880878 32.433731)
(30.135946 -18.876383 32.197609)
(29.929398 -18.840548 30.314928)
(31.281092 -16.499344 30.314926)
(-1.3634441 -11.378577 1.9054524)
(-2.4883175 -10.828302 1.7691891)
(-1.3649043 -11.067092 1.7691891)
(-4.0638881 -15.095419 3.7844033)
(13.096438 -13.536837 5.4387474)
(12.568263 -12.904426 4.8428597)
(-32.30085 14.381264 28.632086)
(-35.357681 7.5155067 36.147594)
(-33.022469 14.70255 36.147594)
(-30.487171 16.014305 26.298206)
(-29.115339 15.253888 21.445044)
(-27.767925 17.587681 21.445044)
(-28.350798 17.937906 23.549072)
(-26.715738 19.41012 21.445044)
(-10.087852 -23.852825 11.338118)