/*--------------------------------*- C++ -*----------------------------------*\
  =========                 |
  \\      /  F ield         | OpenFOAM: The Open Source CFD Toolbox
   \\    /   O peration     | Website:  https://openfoam.org
    \\  /    A nd           | Version:  dev
     \\/     M anipulation  |
\*---------------------------------------------------------------------------*/
FoamFile
{
    format      ascii;
    class       polyBoundaryMesh;
    location    "constant/fluid/polyMesh";
    object      boundary;
}
// * * * * * * * * * * * * * * * * * * * * * * * * * * * * * * * * * * * * * //

3
(
    inlet
    {
        type            patch;
        nFaces          450;
        startFace       19125;
    }
    walls
    {
        type            wall;
        inGroups        List<word> 
2
(
externalWall
wall
)
;
        nFaces          1350;
        startFace       19575;
    }
    outlet
    {
        type            patch;
        nFaces          450;
        startFace       20925;
    }
)

// ************************************************************************* //
