/*--------------------------------*- C++ -*----------------------------------*\
  =========                 |
  \\      /  F ield         | OpenFOAM: The Open Source CFD Toolbox
   \\    /   O peration     | Website:  https://openfoam.org
    \\  /    A nd           | Version:  dev
     \\/     M anipulation  |
\*---------------------------------------------------------------------------*/
FoamFile
{
    format      ascii;
    class       polyBoundaryMesh;
    location    "constant/air/polyMesh";
    object      boundary;
}
// * * * * * * * * * * * * * * * * * * * * * * * * * * * * * * * * * * * * * //

13
(
    inlet
    {
        type            patch;
        nFaces          0;
        startFace       53709;
    }
    outlet
    {
        type            patch;
        nFaces          0;
        startFace       53709;
    }
    walls
    {
        type            wall;
        inGroups        List<word> 1(wall);
        nFaces          179;
        startFace       53709;
    }
    air_to_water
    {
        type            mappedWall;
        inGroups        List<word> 
2
(
wall
mapped
)
;
        nFaces          771;
        startFace       53888;
        neighbourRegion water;
        neighbourPatch  water_to_air;
        transformType   none;
    }
    air_to_solid
    {
        type            mappedWall;
        inGroups        List<word> 
2
(
wall
mapped
)
;
        nFaces          5861;
        startFace       54659;
        neighbourRegion solid;
        neighbourPatch  solid_to_air;
        transformType   none;
    }
    procBoundary10to1
    {
        type            processor;
        inGroups        List<word> 1(processor);
        nFaces          625;
        startFace       60520;
        matchTolerance  0.0001;
        myProcNo        10;
        neighbProcNo    1;
    }
    procBoundary10to2
    {
        type            processor;
        inGroups        List<word> 1(processor);
        nFaces          7;
        startFace       61145;
        matchTolerance  0.0001;
        myProcNo        10;
        neighbProcNo    2;
    }
    procBoundary10to3
    {
        type            processor;
        inGroups        List<word> 1(processor);
        nFaces          48;
        startFace       61152;
        matchTolerance  0.0001;
        myProcNo        10;
        neighbProcNo    3;
    }
    procBoundary10to4
    {
        type            processor;
        inGroups        List<word> 1(processor);
        nFaces          73;
        startFace       61200;
        matchTolerance  0.0001;
        myProcNo        10;
        neighbProcNo    4;
    }
    procBoundary10to5
    {
        type            processor;
        inGroups        List<word> 1(processor);
        nFaces          69;
        startFace       61273;
        matchTolerance  0.0001;
        myProcNo        10;
        neighbProcNo    5;
    }
    procBoundary10to7
    {
        type            processor;
        inGroups        List<word> 1(processor);
        nFaces          70;
        startFace       61342;
        matchTolerance  0.0001;
        myProcNo        10;
        neighbProcNo    7;
    }
    procBoundary10to9
    {
        type            processor;
        inGroups        List<word> 1(processor);
        nFaces          387;
        startFace       61412;
        matchTolerance  0.0001;
        myProcNo        10;
        neighbProcNo    9;
    }
    procBoundary10to11
    {
        type            processor;
        inGroups        List<word> 1(processor);
        nFaces          454;
        startFace       61799;
        matchTolerance  0.0001;
        myProcNo        10;
        neighbProcNo    11;
    }
)

// ************************************************************************* //
