/*--------------------------------*- C++ -*----------------------------------*\
  =========                 |
  \\      /  F ield         | OpenFOAM: The Open Source CFD Toolbox
   \\    /   O peration     | Website:  https://openfoam.org
    \\  /    A nd           | Version:  dev
     \\/     M anipulation  |
\*---------------------------------------------------------------------------*/
FoamFile
{
    format      ascii;
    class       extendedFeatureEdgeMesh;
    location    "constant/extendedFeatureEdgeMesh";
    object      pot.extendedFeatureEdgeMesh;
}
// * * * * * * * * * * * * * * * * * * * * * * * * * * * * * * * * * * * * * //

// points

2766
(
(-3.1232352 1.1924208 0.29451755)
(-3.1232355 -1.0306096 -0.096129328)
(-3.1232352 -1.1924208 0.0030286286)
(3.1232352 1.1924208 0.0030286286)
(3.1232355 1.0306096 -0.096129328)
(3.1232352 -1.1924208 0.29451755)
(2.2415323 -1.2137141 -3.0508811)
(2.2524421 -1.2073961 -3.039876)
(2.1890438 -1.2790719 -3.0743389)
(2.1827481 -1.293164 -3.0719042)
(-3.1232355 1.0306096 -0.096129313)
(3.1232355 -1.0306096 -0.096129313)
(-2.9881794 0.6225152 -0.58752847)
(-2.6691303 -1.4037659 -0.78884238)
(0.92992419 2.8831046 -0.7540893)
(-2.9881794 -0.6225152 -0.58752847)
(0.11224785 -0.75321299 -3.0272851)
(2.9881794 -0.6225152 -0.58752847)
(-0.92992419 -2.8831046 -0.7540893)
(0.9386093 -2.8892646 -0.72933829)
(-0.9386093 -2.8892646 -0.72933829)
(2.9881794 0.6225152 -0.58752847)
(2.6691303 -1.4037659 -0.78884238)
(-0.9386093 2.8892646 -0.72933829)
(-0.92992419 2.8831046 -0.7540893)
(0.9386093 2.8892646 -0.72933829)
(0.92992419 -2.8831046 -0.7540893)
(0.10492793 -0.7210803 -3.0379128)
(2.6778777 -1.4163496 -0.74551904)
(-0.11224785 -0.75321299 -3.0272851)
(-0.30665156 0.56910104 -3.0508811)
(-2.6778777 -1.4163496 -0.74551904)
(-0.30665156 -0.56910104 -3.0508811)
(-0.10492793 -0.7210803 -3.0379128)
(3.0160165 -0.77928698 0)
(2.8642802 -1.2238699 0)
(-2.8642802 -1.2238699 0)
(-3.0160165 -0.77928698 0)
(3.0160165 0.77928698 0)
(2.8642802 1.2238699 0)
(-2.8642802 1.2238699 0)
(-3.0160165 0.77928698 0)
(-2.8727615 1.2033944 -0.026415922)
(-2.8678946 1.215144 -0.013480728)
(-2.8465025 1.2667891 0.10522236)
(-2.8465025 1.2667891 0.19232377)
(-2.8678946 1.215144 0.31102693)
(-2.8751376 1.1976583 0.3302772)
(2.8727615 1.2033944 -0.026415922)
(2.8678946 1.215144 -0.013480728)
(2.879935 1.1860759 -0.045481972)
(2.8465025 1.2667891 0.19232377)
(2.8678946 1.215144 0.31102693)
(2.8465025 1.2667891 0.10522236)
(-2.8465025 -1.2667891 0.10522236)
(-2.8678946 -1.215144 0.31102693)
(-2.8465025 -1.2667891 0.19232377)
(-2.8727615 -1.2033944 -0.026415922)
(-2.879935 -1.1860759 -0.045481972)
(-2.8678946 -1.215144 -0.013480728)
(2.8751376 -1.1976583 0.3302772)
(2.8678946 -1.215144 0.31102693)
(2.8465025 -1.2667891 0.19232377)
(2.8465025 -1.2667891 0.10522236)
(2.8727615 -1.2033944 -0.026415922)
(2.8678946 -1.215144 -0.013480728)
(-3.1232357 1.1924208 0.29451752)
(-3.1232357 0.84607637 0.34937304)
(-3.1232357 0.74386561 0.1487731)
(-3.1232357 0.84607637 -0.051826764)
(-3.1232355 1.0306096 -0.096129321)
(-3.1232355 -1.0306096 -0.096129321)
(-3.1232357 -1.1924208 0.0030286789)
(-3.1232357 -0.84607637 0.34937304)
(-3.1232357 -0.74386561 0.1487731)
(-3.1232357 -0.84607637 -0.051826764)
(3.1232357 1.1924208 0.0030286789)
(3.1232357 0.84607637 -0.051826764)
(3.1232357 0.74386561 0.1487731)
(3.1232357 0.84607637 0.34937304)
(3.1232355 1.0306096 -0.096129321)
(3.1232355 -1.0306096 -0.096129321)
(3.1232357 -1.1924208 0.29451752)
(3.1232357 -0.84607637 -0.051826764)
(3.1232357 -0.74386561 0.1487731)
(3.1232357 -0.84607637 0.34937304)
(-0.27982384 0.52602297 -3.0589435)
(-0.27621168 -0.52022284 -3.060029)
(-0.27982384 -0.52602297 -3.0589435)
(-0.27621168 0.52022284 -3.060029)
(3.1242356 0 0)
(3.0857711 -0.48873806 0)
(2.7837143 -1.4183733 0)
(2.5275598 -1.8363796 0)
(2.2091682 -2.2091682 0)
(1.8363796 -2.5275598 0)
(1.4183733 -2.7837143 0)
(0.96544188 -2.9713247 0)
(0.48873806 -3.0857711 0)
(0 -3.1242356 0)
(-0.48873806 -3.0857711 0)
(-0.96544188 -2.9713247 0)
(-1.4183733 -2.7837143 0)
(-1.8363796 -2.5275598 0)
(-2.2091682 -2.2091682 0)
(-2.5275598 -1.8363796 0)
(-2.7837143 -1.4183733 0)
(-3.0857711 -0.48873806 0)
(-3.1242356 0 0)
(3.0857711 0.48873806 0)
(2.7837143 1.4183733 0)
(2.5275598 1.8363796 0)
(2.2091682 2.2091682 0)
(1.8363796 2.5275598 0)
(1.4183733 2.7837143 0)
(0.96544188 2.9713247 0)
(0.48873806 3.0857711 0)
(0 3.1242356 0)
(-0.48873806 3.0857711 0)
(-0.96544188 2.9713247 0)
(-1.4183733 2.7837143 0)
(-1.8363796 2.5275598 0)
(-2.2091682 2.2091682 0)
(-2.5275598 1.8363796 0)
(-2.7837143 1.4183733 0)
(-3.0857711 0.48873806 0)
(-2.8853216 1.1730715 -0.055812012)
(-2.879935 1.1860759 -0.045481972)
(-2.8938866 1.1523941 -0.072236992)
(-2.9038417 1.1283599 -0.085684806)
(-2.9150066 1.1014056 -0.098108709)
(-2.9093461 1.1150715 -0.093119994)
(-2.9258814 1.0751517 -0.1076927)
(-2.9313352 1.0619851 -0.11023863)
(-2.943047 1.0337101 -0.11570604)
(-2.9481137 1.0214778 -0.11611141)
(-2.9603982 0.99182081 -0.11709417)
(-2.9713247 0.96544188 -0.11381621)
(-2.9713247 0.96544188 0.89263868)
(-2.7837143 1.4183733 0.89263868)
(2.9713247 0.96544188 -0.11381621)
(2.9724159 0.96089649 -0.11333844)
(2.9749167 0.95047981 -0.11224353)
(2.9772773 0.94064707 -0.10961667)
(2.984519 0.91048318 -0.10155824)
(2.9866102 0.9017731 -0.097702213)
(2.9935718 0.87277621 -0.084864974)
(2.9953709 0.8652817 -0.080040924)
(3.0018656 0.83822906 -0.06262771)
(3.0077746 0.81361699 -0.040754955)
(3.0092139 0.80762118 -0.03542643)
(3.0104153 0.80261737 -0.029364895)
(3.0154541 0.78162915 -0.0039400724)
(2.9713247 0.96544188 0.89263868)
(3.0857711 0.48873806 0.89263868)
(3.1242356 0 0.89263868)
(2.8853216 1.1730715 -0.055812012)
(2.8938866 1.1523941 -0.072236992)
(2.9038417 1.1283599 -0.085684806)
(2.9093461 1.1150715 -0.093119994)
(2.9150066 1.1014056 -0.098108709)
(2.9258814 1.0751517 -0.1076927)
(2.9313352 1.0619851 -0.11023863)
(2.943047 1.0337101 -0.11570604)
(2.9481137 1.0214778 -0.11611141)
(2.9603982 0.99182081 -0.11709417)
(2.7837143 1.4183733 0.89263868)
(1.8363796 -2.5275598 0.89263868)
(1.4183733 -2.7837143 0.89263868)
(3.0857711 -0.48873806 0.89263868)
(2.9713247 -0.96544188 0.89263868)
(3.0154541 -0.78162915 -0.0039400724)
(3.0104153 -0.80261737 -0.029364895)
(3.0092139 -0.80762118 -0.03542643)
(3.0077746 -0.81361699 -0.040754955)
(3.0018656 -0.83822906 -0.06262771)
(2.9953709 -0.8652817 -0.080040924)
(2.9935718 -0.87277621 -0.084864974)
(2.9866102 -0.9017731 -0.097702213)
(2.984519 -0.91048318 -0.10155824)
(2.9772773 -0.94064707 -0.10961667)
(2.9749167 -0.95047981 -0.11224353)
(2.9724159 -0.96089649 -0.11333844)
(2.9713247 -0.96544188 -0.11381621)
(0.96544188 -2.9713247 0.89263868)
(-1.4183733 2.7837143 0.89263868)
(-0.96544188 2.9713247 0.89263868)
(-1.8363796 2.5275598 0.89263868)
(1.8363796 2.5275598 0.89263868)
(2.2091682 2.2091682 0.89263868)
(-0.48873806 3.0857711 0.89263868)
(-2.7837143 -1.4183733 0.89263868)
(-2.9713247 -0.96544188 0.89263868)
(-2.9603982 -0.99182081 -0.11709417)
(-2.9713247 -0.96544188 -0.11381621)
(-2.9481137 -1.0214778 -0.11611141)
(-2.943047 -1.0337101 -0.11570604)
(-2.9313352 -1.0619851 -0.11023863)
(-2.9258814 -1.0751517 -0.1076927)
(-2.9150066 -1.1014056 -0.098108709)
(-2.9038417 -1.1283599 -0.085684806)
(-2.9093461 -1.1150715 -0.093119994)
(-2.8938866 -1.1523941 -0.072236992)
(-2.8853216 -1.1730715 -0.055812012)
(0 3.1242356 0.89263868)
(-0.48873806 -3.0857711 0.89263868)
(-0.96544188 -2.9713247 0.89263868)
(2.7837143 -1.4183733 0.89263868)
(2.9603982 -0.99182081 -0.11709417)
(2.9481137 -1.0214778 -0.11611141)
(2.943047 -1.0337101 -0.11570604)
(2.9313352 -1.0619851 -0.11023863)
(2.9258814 -1.0751517 -0.1076927)
(2.9150066 -1.1014056 -0.098108709)
(2.9093461 -1.1150715 -0.093119994)
(2.9038417 -1.1283599 -0.085684806)
(2.8938866 -1.1523941 -0.072236992)
(2.8853216 -1.1730715 -0.055812012)
(2.879935 -1.1860759 -0.045481972)
(-2.2091682 -2.2091682 0.89263868)
(-2.5275598 -1.8363796 0.89263868)
(-2.2091682 2.2091682 0.89263868)
(0.48873806 -3.0857711 0.89263868)
(0 -3.1242356 0.89263868)
(-1.8363796 -2.5275598 0.89263868)
(2.5275598 -1.8363796 0.89263868)
(2.5275598 1.8363796 0.89263868)
(-2.5275598 1.8363796 0.89263868)
(0.48873806 3.0857711 0.89263868)
(0.96544188 2.9713247 0.89263868)
(1.4183733 2.7837143 0.89263868)
(-2.9724159 0.96089649 -0.11333844)
(-2.9749167 0.95047981 -0.11224353)
(-2.9772773 0.94064707 -0.10961667)
(-2.984519 0.91048318 -0.10155824)
(-2.9866102 0.9017731 -0.097702213)
(-2.9935718 0.87277621 -0.084864974)
(-2.9953709 0.8652817 -0.080040924)
(-3.0018656 0.83822906 -0.06262771)
(-3.0077746 0.81361699 -0.040754955)
(-3.0092139 0.80762118 -0.03542643)
(-3.0104153 0.80261737 -0.029364895)
(-3.0154541 0.78162915 -0.0039400724)
(-3.0857711 0.48873806 0.89263868)
(-3.0857711 -0.48873806 0.89263868)
(-3.0154541 -0.78162915 -0.0039400724)
(-3.0104153 -0.80261737 -0.029364895)
(-3.0092139 -0.80762118 -0.03542643)
(-3.0077746 -0.81361699 -0.040754955)
(-3.0018656 -0.83822906 -0.06262771)
(-2.9953709 -0.8652817 -0.080040924)
(-2.9935718 -0.87277621 -0.084864974)
(-2.9866102 -0.9017731 -0.097702213)
(-2.984519 -0.91048318 -0.10155824)
(-2.9772773 -0.94064707 -0.10961667)
(-2.9749167 -0.95047981 -0.11224353)
(-2.9724159 -0.96089649 -0.11333844)
(2.2091682 -2.2091682 0.89263868)
(-3.1242356 0 0.89263868)
(-1.4183733 -2.7837143 0.89263868)
(2.9388297 0.46546489 0.89263868)
(2.9754624 0 0.89263868)
(2.829833 0.9194684 0.89263868)
(2.6511564 1.3508317 0.89263868)
(2.4071996 1.748933 0.89263868)
(2.1039696 2.1039696 0.89263868)
(1.748933 2.4071996 0.89263868)
(1.3508317 2.6511564 0.89263868)
(0.9194684 2.829833 0.89263868)
(0.46546489 2.9388297 0.89263868)
(0 2.9754624 0.89263868)
(-0.46546489 2.9388297 0.89263868)
(-0.9194684 2.829833 0.89263868)
(-1.3508317 2.6511564 0.89263868)
(-1.748933 2.4071996 0.89263868)
(-2.1039696 2.1039696 0.89263868)
(-2.4071996 1.748933 0.89263868)
(-2.6511564 1.3508317 0.89263868)
(-2.829833 0.9194684 0.89263868)
(-2.9388297 0.46546489 0.89263868)
(-2.9754624 0 0.89263868)
(2.9388297 -0.46546489 0.89263868)
(2.829833 -0.9194684 0.89263868)
(2.6511564 -1.3508317 0.89263868)
(2.4071996 -1.748933 0.89263868)
(2.1039696 -2.1039696 0.89263868)
(1.748933 -2.4071996 0.89263868)
(1.3508317 -2.6511564 0.89263868)
(0.9194684 -2.829833 0.89263868)
(0.46546489 -2.9388297 0.89263868)
(0 -2.9754624 0.89263868)
(-0.46546489 -2.9388297 0.89263868)
(-0.9194684 -2.829833 0.89263868)
(-1.3508317 -2.6511564 0.89263868)
(-1.748933 -2.4071996 0.89263868)
(-2.1039696 -2.1039696 0.89263868)
(-2.4071996 -1.748933 0.89263868)
(-2.6511564 -1.3508317 0.89263868)
(-2.829833 -0.9194684 0.89263868)
(-2.9388297 -0.46546489 0.89263868)
(-2.96629 0 0.1)
(-2.9297702 -0.46402997 0.1)
(-2.9297702 0.46402997 0.1)
(-2.3997791 1.7435416 0.1)
(-2.6429839 1.3466675 0.1)
(-2.3997791 -1.7435416 0.1)
(-2.0974839 -2.0974839 0.1)
(0.46402997 -2.9297702 0.1)
(0.91663396 -2.8211095 0.1)
(2.9297702 0.46402997 0.1)
(2.8211095 0.91663396 0.1)
(2.6429839 1.3466675 0.1)
(2.3997791 1.7435416 0.1)
(1.3466675 2.6429839 0.1)
(0.91663396 2.8211095 0.1)
(2.0974839 2.0974839 0.1)
(1.7435416 2.3997791 0.1)
(-0.91663396 -2.8211095 0.1)
(-0.46402997 -2.9297702 0.1)
(0 2.96629 0.1)
(-0.46402997 2.9297702 0.1)
(-2.8211095 0.91663396 0.1)
(2.6429839 -1.3466675 0.1)
(2.8211095 -0.91663396 0.1)
(1.3466675 -2.6429839 0.1)
(1.7435416 -2.3997791 0.1)
(-1.7435416 -2.3997791 0.1)
(-2.8211095 -0.91663396 0.1)
(2.9297702 -0.46402997 0.1)
(0 -2.96629 0.1)
(2.96629 0 0.1)
(-2.0974839 2.0974839 0.1)
(0.46402997 2.9297702 0.1)
(-0.91663396 2.8211095 0.1)
(-1.3466675 2.6429839 0.1)
(2.0974839 -2.0974839 0.1)
(2.3997791 -1.7435416 0.1)
(-1.3466675 -2.6429839 0.1)
(-2.6429839 -1.3466675 0.1)
(-1.7435416 2.3997791 0.1)
(-0.22547744 0.46202081 -3.0719042)
(-0.20618556 0.45342487 -3.0743389)
(-2.6216586 1.5933433 -0.48042041)
(-2.6330492 1.583233 -0.45236748)
(-2.9992595 0.61235905 -0.53431052)
(-2.9992595 -0.61235905 -0.53431052)
(-2.6330492 -1.583233 -0.45236748)
(-2.6216586 -1.5933433 -0.48042041)
(-0.20618556 -0.45342487 -3.0743389)
(-0.22547744 -0.46202081 -3.0719042)
(2.6216586 -1.5933433 -0.48042041)
(2.6330492 -1.583233 -0.45236748)
(2.9992595 -0.61235905 -0.53431052)
(2.9992595 0.61235905 -0.53431052)
(2.6330492 1.583233 -0.45236748)
(2.6216586 1.5933433 -0.48042041)
(-3.1232357 1.0306096 -0.096129321)
(-3.1232352 1.1924208 0.0030286286)
(-3.1232357 1.1924208 0.0030286789)
(-3.1232357 -1.1924208 0.29451752)
(-3.1232352 -1.1924208 0.29451755)
(-3.1232357 -1.0306096 -0.096129321)
(-3.1232355 -1.0306095 -0.096129328)
(-3.1232357 -0.99182081 -0.099182032)
(-3.1232357 -0.95303202 -0.096129321)
(-3.1232357 -0.74691832 0.1099843)
(-3.1232357 -0.75600135 0.072150707)
(-3.1232357 -0.79122084 0.29451752)
(-3.1232357 -0.81648999 0.32410392)
(-3.1232357 -0.74691832 0.1875618)
(-3.1232352 -1.2367233 0.18756181)
(-3.1232352 -1.1924208 0.0030286512)
(-3.1232357 -0.87925148 -0.072156526)
(-3.1232357 -0.75600135 0.22539549)
(-3.1232357 -0.91519845 -0.087046243)
(-3.1232357 -0.87925148 0.36970282)
(-3.1232357 -0.91519845 0.38459253)
(-3.1232357 -0.95303202 0.39367551)
(-3.1232357 -0.99182081 0.39672834)
(-3.1232357 -0.81648999 -0.026557636)
(-3.1232352 -1.2367233 0.10998429)
(-3.1232357 -0.79122084 0.0030286789)
(-3.1232352 1.2367233 0.18756181)
(-3.1232357 0.91519845 -0.087046243)
(-3.1232357 0.95303202 -0.096129321)
(-3.1232352 1.2367233 0.10998429)
(-3.1232357 0.81648999 0.32410392)
(-3.1232357 0.79122084 0.29451752)
(-3.1232357 0.74691832 0.1875618)
(-3.1232352 1.1924208 0.0030286512)
(-3.1232357 0.99182081 -0.099182032)
(-3.1232357 0.74691832 0.1099843)
(-3.1232357 0.75600135 0.072150707)
(-3.1232357 0.75600135 0.22539549)
(-3.1232357 1.0684432 -0.087046243)
(-3.1232357 0.81648999 -0.026557636)
(-3.1232357 0.79122084 0.0030286789)
(-3.1232357 0.95303202 0.39367551)
(-3.1232357 0.99182081 0.39672834)
(-3.1232357 0.91519845 0.38459253)
(-3.1232357 0.87925148 0.36970282)
(-3.1232357 0.87925148 -0.072156526)
(3.1232357 1.0306096 -0.096129321)
(3.1232355 1.0306095 -0.096129328)
(3.1232357 1.1924208 0.29451752)
(3.1232352 1.1924208 0.29451755)
(3.1232352 -1.1924208 0.0030286286)
(3.1232357 -1.1924208 0.0030286789)
(3.1232357 -1.0306096 -0.096129321)
(3.1232352 1.2367233 0.10998429)
(3.1232357 0.95303202 0.39367551)
(3.1232357 0.99182081 0.39672834)
(3.1232357 0.79122084 0.29451752)
(3.1232357 0.81648999 0.32410392)
(3.1232357 0.75600135 0.072150707)
(3.1232357 0.74691832 0.1099843)
(3.1232352 1.1924208 0.0030286512)
(3.1232352 1.2367233 0.18756181)
(3.1232357 0.87925148 -0.072156526)
(3.1232357 0.91519845 0.38459253)
(3.1232357 0.81648999 -0.026557636)
(3.1232357 0.79122084 0.0030286789)
(3.1232357 0.95303202 -0.096129321)
(3.1232357 0.91519845 -0.087046243)
(3.1232357 0.87925148 0.36970282)
(3.1232357 0.99182081 -0.099182032)
(3.1232357 0.75600135 0.22539549)
(3.1232357 0.74691832 0.1875618)
(3.1232357 -0.75600135 0.22539549)
(3.1232357 -0.74691832 0.1875618)
(3.1232357 -0.99182081 0.39672834)
(3.1232357 -0.95303202 0.39367551)
(3.1232357 -1.0684432 -0.087046243)
(3.1232357 -0.87925148 -0.072156526)
(3.1232357 -0.91519845 -0.087046243)
(3.1232352 -1.2367233 0.10998429)
(3.1232357 -0.74691832 0.1099843)
(3.1232357 -0.81648999 -0.026557636)
(3.1232352 -1.2367233 0.18756181)
(3.1232357 -0.91519845 0.38459253)
(3.1232357 -0.87925148 0.36970282)
(3.1232352 -1.1924208 0.0030286512)
(3.1232357 -0.95303202 -0.096129321)
(3.1232357 -0.99182081 -0.099182032)
(3.1232357 -0.81648999 0.32410392)
(3.1232357 -0.79122084 0.29451752)
(3.1232357 -0.75600135 0.072150707)
(3.1232357 -0.79122084 0.0030286789)
(-0.1197181 -2.6544268 -1.6324086)
(-0.12161648 -2.8118906 -1.3230751)
(-2.9621651 0.96246576 0)
(-2.7751331 1.4140009 0)
(0.99193096 0.048894942 -2.9513409)
(1.1888767 0.085339889 -2.8864174)
(2.0105853 -0.23434642 -2.3756874)
(1.7292023 -0.18373381 -2.5830181)
(-0.21245916 -0.45622021 -3.0735471)
(-1.6541929 1.7867953 -1.9397868)
(-1.6124089 1.7374774 -2.0290287)
(-1.4324367 1.8911881 -2.0290287)
(-1.5850432 2.0748243 -1.699404)
(-2.9617953 0.6364969 -0.72933829)
(-2.9755731 0.63063407 -0.65315855)
(-2.9889772 0.62178385 -0.58369637)
(-1.6905136 1.1126807 -2.3756874)
(-1.8801447 1.2221729 -2.1561139)
(-2.2380569 -1.430396 -1.6324086)
(-2.0727844 -1.3339252 -1.8965576)
(-2.3504112 -1.2189285 -1.6526952)
(-2.3631771 -1.2262182 -1.6324086)
(0.09400057 3.0508809 -0.60075134)
(0.08205729 3.060029 -0.54892766)
(0.10420041 3.039876 -0.66516596)
(0.11118203 3.0291626 -0.72933829)
(-2.4785671 -1.5741128 -1.0156769)
(-2.4288743 -1.5436667 -1.1955931)
(-2.556802 -1.3349075 -1.1955931)
(-2.6440527 -1.382296 -0.88948554)
(-2.6447489 -1.3826761 -0.88703984)
(-2.6453073 -1.382985 -0.88507175)
(-2.645714 -1.3832153 -0.88362992)
(-2.6459589 -1.3833611 -0.88274992)
(-2.6581991 -1.3925261 -0.83574712)
(-2.6584287 -1.3926983 -0.83486468)
(-2.672441 -1.4085288 -0.77244467)
(0.95451427 -1.3237051 -2.6638489)
(1.0059452 -1.3845648 -2.6064465)
(1.0983183 2.6596663 -1.1955931)
(1.1258101 2.7294765 -0.96400106)
(1.5776483 -0.39974552 -2.6638489)
(1.7629777 -0.43177307 -2.5270655)
(2.202358 -2.202358 0)
(1.8307186 -2.519768 0)
(-2.0857775 -0.24760634 -2.2994516)
(-2.3524985 -0.2946417 -2.0290287)
(-0.59528232 -1.9814866 -2.3326247)
(-0.58050263 -1.9408851 -2.3756874)
(-0.44304878 -1.567252 -2.6638489)
(-0.3862431 -1.4141198 -2.7467301)
(0.55320877 -1.8666936 -2.4329069)
(0.58050263 -1.9408851 -2.3756874)
(2.8793359 -0.38283816 -1.1246567)
(2.8565555 -0.37942949 -1.1955931)
(1.8889936 -2.3975883 -0.59383249)
(1.9039581 -2.3969736 -0.53524232)
(1.8846823 -2.3970299 -0.6142543)
(-0.70762682 2.2904415 -1.9959145)
(-0.79705244 2.539742 -1.6324086)
(2.6724048 0.34923688 -1.5616733)
(2.8565555 0.37942949 -1.1955931)
(-2.9313555 0.64215571 -0.81663686)
(-2.9316423 0.64217138 -0.81576496)
(-2.9160869 0.64131564 -0.86307764)
(-2.9158053 0.64126992 -0.86395526)
(-2.9153459 0.64118493 -0.86539596)
(-2.9147196 0.64106274 -0.86736411)
(-2.9139419 0.64090633 -0.86981124)
(-2.8650014 0.63095468 -1.0238981)
(-2.9469569 0.64055693 -0.7709552)
(-2.9617503 0.63651747 -0.72945821)
(0.93852973 2.8892081 -0.72956502)
(0.91901445 2.872318 -0.79433137)
(0.90994847 2.8598664 -0.83824444)
(0.90981853 2.8596103 -0.83910674)
(0.9029057 2.8459692 -0.88503772)
(0.90280455 2.8457026 -0.88591075)
(0.90264833 2.8452623 -0.88734543)
(0.90244091 2.8446589 -0.88930643)
(0.90218741 2.8439071 -0.89174539)
(0.87081623 2.7502203 -1.1955931)
(2.6368225 0.34340295 -1.6324086)
(-0.11874775 2.448456 -1.916008)
(-0.11836104 2.3663721 -2.0290287)
(-1.3867221 0.66175568 -2.7113655)
(-1.0883728 0.48704004 -2.8864174)
(-2.8793359 -0.38283816 -1.1246567)
(-2.957387 -0.39451712 -0.88161135)
(-2.9581711 -0.39463618 -0.87916893)
(-2.9588015 -0.3947356 -0.87720495)
(-2.9592624 -0.39481297 -0.87576777)
(-2.9595425 -0.39486632 -0.87489295)
(-2.9741771 -0.39930311 -0.82877773)
(-2.9744518 -0.39938655 -0.82791191)
(-2.9882894 -0.40614873 -0.78368604)
(-3.0008073 -0.41501439 -0.74301261)
(-3.00493 -0.41908455 -0.72933829)
(-1.0983183 2.6596663 -1.1955931)
(-1.0574239 2.5514033 -1.4233135)
(0.19074717 -0.88900167 -2.9786344)
(0.20665203 -0.93157631 -2.9639316)
(0.18822598 -0.88225287 -2.9809651)
(0.18736984 -0.87995625 -2.9817581)
(0.18668461 -0.87810761 -2.9823961)
(0.18618719 -0.8767525 -2.9828634)
(0.1858899 -0.87592447 -2.9831483)
(0.17163658 -0.83143926 -2.9983311)
(0.17136911 -0.83060402 -2.9986162)
(0.15988946 -0.78665507 -3.0134177)
(0.15164346 -0.74487853 -3.0272851)
(0.14758423 -0.71231854 -3.0379128)
(-0.09400057 -3.0508809 -0.60075134)
(-0.08205729 -3.060029 -0.54892766)
(-0.10420041 -3.039876 -0.66516596)
(-0.11118203 -3.0291626 -0.72933829)
(-1.9039581 -2.3969736 -0.53524232)
(-1.8889936 -2.3975883 -0.59383249)
(-1.8846823 -2.3970299 -0.6142543)
(-2.9755731 -0.63063407 -0.65315855)
(-2.9617953 -0.6364969 -0.72933829)
(-2.9889772 -0.62178385 -0.58369637)
(-2.519768 -1.8307186 0)
(-2.7751331 -1.4140009 0)
(-2.3717992 -1.2310581 -1.6129576)
(-2.3508418 -1.4973459 -1.3742237)
(0.79705244 -2.539742 -1.6324086)
(0.86693287 -2.7391396 -1.2185897)
(-1.1425837 -2.7909455 -0.76886213)
(-1.1412584 -2.805352 -0.72933829)
(-1.1415111 -2.7755845 -0.81394267)
(-1.1414459 -2.7753048 -0.81481725)
(-1.1379654 -2.7604144 -0.86139917)
(-1.1378716 -2.7601452 -0.86227787)
(-1.1377081 -2.7597075 -0.86371964)
(-1.1374789 -2.7591119 -0.86568904)
(-1.13719 -2.7583733 -0.8681373)
(-1.1258101 -2.7294765 -0.96400106)
(1.4324367 1.8911881 -2.0290287)
(1.2250993 1.6440738 -2.3525882)
(1.5558735 1.6701064 -2.1172469)
(1.6124089 1.7374774 -2.0290287)
(1.582857 1.0510113 -2.4660678)
(1.3472703 0.91605926 -2.6638489)
(2.0137432 1.0260533 -2.1446395)
(2.1135926 1.0836968 -2.0290287)
(1.9898999 1.285545 -2.0290287)
(1.8801447 1.2221729 -2.1561139)
(2.3717992 1.2310581 -1.6129576)
(2.556802 1.3349075 -1.1955931)
(2.4288743 1.5436667 -1.1955931)
(2.3508418 1.4973459 -1.3742237)
(2.9889772 0.62178385 -0.58369637)
(0.92026603 -2.182312 -2.0290287)
(0.86406541 -2.027915 -2.1936877)
(-2.3090568 -0.52734637 -2.0290287)
(-2.1407738 -0.49767092 -2.2001169)
(-1.3472703 -0.91605926 -2.6638489)
(-0.97338611 -0.70323455 -2.8836167)
(1.3902494 1.4727385 -2.3756874)
(1.2102972 1.6264321 -2.3756874)
(0.12488721 -0.89037228 -2.9823961)
(0.12489109 -0.88893378 -2.9828634)
(0.12487566 -0.89233679 -2.9817581)
(0.12485675 -0.89477879 -2.9809651)
(0.12479607 -0.90196735 -2.978631)
(0.12239883 -1.1859602 -2.8864174)
(0.12488721 -0.88805676 -2.9831483)
(0.12306493 -0.84147269 -2.9983311)
(0.12303059 -0.84059811 -2.9986162)
(0.11878647 -0.79537719 -3.0134177)
(0.1093062 -0.74029988 -3.0315559)
(-2.592176 0.57865012 -1.6324086)
(-2.6736207 0.5940277 -1.4694327)
(2.9617953 -0.6364969 -0.72933829)
(2.9755731 -0.63063407 -0.65315855)
(2.9889772 -0.62178385 -0.58369637)
(2.957387 -0.39451712 -0.88161135)
(2.9581711 -0.39463618 -0.87916893)
(2.9588015 -0.3947356 -0.87720495)
(2.9592624 -0.39481297 -0.87576777)
(2.9595425 -0.39486632 -0.87489295)
(2.9741771 -0.39930311 -0.82877773)
(2.9744518 -0.39938655 -0.82791191)
(2.9882894 -0.40614873 -0.78368604)
(3.0008073 -0.41501439 -0.74301261)
(3.00493 -0.41908455 -0.72933829)
(0.96246576 -2.9621651 0)
(0.48723143 -3.0762587 0)
(0.96467882 -2.3025568 -1.8521861)
(2.0128808 -2.2041502 -0.86899513)
(2.0125039 -2.2037172 -0.87076747)
(2.0119796 -2.2031219 -0.87321603)
(1.9427828 -2.1248951 -1.1955931)
(1.7566462 -2.2838709 -1.1955931)
(1.7724531 -2.3037386 -1.1172607)
(1.8307186 2.519768 0)
(2.202358 2.202358 0)
(-0.69948041 2.267731 -2.0290287)
(-0.12477256 2.9862301 -0.85817832)
(-0.12514324 2.9831481 -0.86757416)
(-0.12514713 2.9828632 -0.86845052)
(-0.12514324 2.9823959 -0.86988962)
(-0.12513168 2.9817579 -0.87185603)
(-0.12511271 2.9809649 -0.87430114)
(-0.12239883 2.8767843 -1.1955931)
(0.96467882 2.3025568 -1.8521861)
(1.0198743 2.4519949 -1.6324086)
(1.1320353 2.8346524 -0.58024859)
(1.1239735 2.847322 -0.52565658)
(1.1378276 2.820833 -0.64707059)
(1.1412084 2.8062034 -0.72447759)
(1.1412584 2.805352 -0.72933829)
(0.98462147 2.905561 -0.52262789)
(0.96974212 2.9034574 -0.57099801)
(0.95549989 2.8989062 -0.63214701)
(0.94224524 2.892019 -0.70456856)
(0.93883348 2.8894324 -0.72797292)
(-1.1412584 2.805352 -0.72933829)
(-1.1425837 2.7909455 -0.76886213)
(-1.1415111 2.7755845 -0.81394267)
(-1.1414459 2.7753048 -0.81481725)
(-1.1379654 2.7604144 -0.86139917)
(-1.1378716 2.7601452 -0.86227787)
(-1.1377081 2.7597075 -0.86371964)
(-1.1374789 2.7591119 -0.86568904)
(-1.13719 2.7583733 -0.8681373)
(-1.1258101 2.7294765 -0.96400106)
(-0.93852973 -2.8892081 -0.72956502)
(-0.91901445 -2.872318 -0.79433137)
(-0.90994847 -2.8598664 -0.83824444)
(-0.90981853 -2.8596103 -0.83910674)
(-0.9029057 -2.8459692 -0.88503772)
(-0.90280455 -2.8457026 -0.88591075)
(-0.90264833 -2.8452623 -0.88734543)
(-0.90244091 -2.8446589 -0.88930643)
(-0.90218741 -2.8439071 -0.89174539)
(-0.87081623 -2.7502203 -1.1955931)
(2.519768 -1.8307186 0)
(0.97338611 -0.70323455 -2.8836167)
(1.3472703 -0.91605926 -2.6638489)
(0.93883348 -2.8894324 -0.72797292)
(-1.8801447 -1.2221729 -2.1561139)
(-1.6905136 -1.1126807 -2.3756874)
(0.96862155 0.70052242 -2.8864174)
(0.96228868 0.69693696 -2.8887877)
(1.1258101 -2.7294765 -0.96400106)
(1.0983183 -2.6596663 -1.1955931)
(-0.69948041 -2.267731 -2.0290287)
(0.11874775 -2.448456 -1.916008)
(0.11836104 -2.3663721 -2.0290287)
(0.90914011 0.033574443 -2.9786329)
(0.90206587 0.03226535 -2.9809651)
(0.89966023 0.03182191 -2.9817581)
(0.89772445 0.031468816 -2.9823961)
(0.89630622 0.031214777 -2.9828634)
(0.89544064 0.031066073 -2.9831483)
(0.84920913 0.024764096 -2.9983311)
(0.84834111 0.024645908 -2.9986162)
(0.80307519 0.02097396 -3.0134177)
(0.76046509 0.02010078 -3.0272851)
(0.72762698 0.021744356 -3.0379128)
(1.1371026 1.1689641 -2.6638489)
(1.3395368 1.4118837 -2.4334145)
(0.51378661 -0.80586344 -2.9634473)
(0.6691407 -0.98785222 -2.8864174)
(0.461496 -0.90573686 -2.9445977)
(0.42584196 -0.80512083 -2.9786303)
(0.42339593 -0.79821813 -2.9809651)
(0.4225637 -0.7958746 -2.9817581)
(0.42189088 -0.79399103 -2.9823961)
(0.42139411 -0.79261392 -2.9828634)
(0.42108566 -0.79177719 -2.9831483)
(0.40324754 -0.74807405 -2.9983311)
(0.40291253 -0.7472536 -2.9986162)
(0.38337165 -0.70596486 -3.0134177)
(0.37143803 -0.68428624 -3.0214746)
(2.0137432 -1.0260533 -2.1446395)
(1.8125514 -0.90987676 -2.3756874)
(2.5803952 1.6103761 -0.64687914)
(2.5654068 1.6111547 -0.72524035)
(2.5950034 1.607084 -0.57888871)
(2.6088717 1.6013595 -0.52294308)
(2.622905 1.5922369 -0.47735062)
(2.5646987 1.6110719 -0.72933829)
(2.6890824 1.4441346 -0.61008269)
(2.6910834 1.4589646 -0.55020219)
(2.6846082 1.4298738 -0.68143326)
(2.680568 1.4219903 -0.72933829)
(2.6736207 -0.5940277 -1.4694327)
(2.8104682 -0.61986583 -1.1955931)
(2.8793359 0.38283816 -1.1246567)
(2.957387 0.39451712 -0.88161135)
(2.9581711 0.39463618 -0.87916893)
(2.9588015 0.3947356 -0.87720495)
(2.9592624 0.39481297 -0.87576777)
(2.9595425 0.39486632 -0.87489295)
(2.9741771 0.39930311 -0.82877773)
(2.9744518 0.39938655 -0.82791191)
(2.9882894 0.40614873 -0.78368604)
(3.0008073 0.41501439 -0.74301261)
(3.00493 0.41908455 -0.72933829)
(2.4678352 0.55611843 -1.806597)
(2.3090568 0.52734637 -2.0290287)
(2.6736207 0.5940277 -1.4694327)
(2.592176 0.57865012 -1.6324086)
(2.1407738 0.49767092 -2.2001169)
(1.5850432 2.0748243 -1.699404)
(1.6541929 1.7867953 -1.9397868)
(2.3090568 -0.52734637 -2.0290287)
(2.4678352 -0.55611843 -1.806597)
(2.6724048 -0.34923688 -1.5616733)
(2.6368225 -0.34340295 -1.6324086)
(-3.0277445 0.45081139 -0.56952769)
(-3.0208125 0.43744361 -0.61993742)
(-3.0122869 0.42618358 -0.67936081)
(-2.3524985 0.2946417 -2.0290287)
(-2.0857775 0.24760634 -2.2994516)
(-2.556802 1.3349075 -1.1955931)
(-2.3717992 1.2310581 -1.6129576)
(-2.3508418 1.4973459 -1.3742237)
(-2.4288743 1.5436667 -1.1955931)
(-2.0137432 1.0260533 -2.1446395)
(-1.8125514 0.90987676 -2.3756874)
(-2.6724048 0.34923688 -1.5616733)
(-2.6368225 0.34340295 -1.6324086)
(-1.9427828 2.1248951 -1.1955931)
(-1.8354079 2.0000331 -1.5197958)
(-1.7308767 2.252394 -1.2756617)
(-1.7566462 2.2838709 -1.1955931)
(-0.12161648 2.8118906 -1.3230751)
(-0.9485293 0.68914682 -2.8939381)
(-0.96228868 0.69693696 -2.8887877)
(2.9621651 -0.96246576 0)
(2.7751331 -1.4140009 0)
(1.8597555 -2.3913195 -0.73662293)
(1.862499 -2.3920796 -0.72933829)
(1.8458408 -2.3848929 -0.77960801)
(1.8330809 -2.3762777 -0.82541621)
(1.8328714 -2.3760812 -0.8262971)
(1.8217194 -2.3656192 -0.87321627)
(1.8215333 -2.3654034 -0.87409639)
(1.8212359 -2.3650429 -0.87553889)
(1.8208346 -2.3645468 -0.87750816)
(1.8203396 -2.3639271 -0.87995565)
(2.032151 -2.2471831 -0.72933829)
(2.032105 -2.2467012 -0.73056173)
(2.0281956 -2.2318792 -0.77319491)
(2.021929 -2.2178152 -0.81877476)
(2.0217721 -2.2175748 -0.81965381)
(2.0134065 -2.2047749 -0.86647505)
(2.0132263 -2.2045538 -0.86735493)
(2.0129228 -2.2041984 -0.8687976)
(-0.93883348 -2.8894324 -0.72797292)
(0.11836104 -2.0197134 -2.3756874)
(0.1189934 -1.8348491 -2.509963)
(-2.202358 2.202358 0)
(-1.8307186 2.519768 0)
(-2.519768 1.8307186 0)
(0.11247797 3.0272849 -0.73480338)
(0.11903 3.0134177 -0.77589518)
(0.12328282 2.998616 -0.82041997)
(0.12331723 2.9983308 -0.82128894)
(0.12477256 2.9862301 -0.85817832)
(-0.86693287 2.7391396 -1.2185897)
(-0.87081623 2.7502203 -1.1955931)
(-0.11118203 3.0291626 -0.72933829)
(-0.11247797 3.0272849 -0.73480338)
(-0.11903 3.0134177 -0.77589518)
(-0.12328282 2.998616 -0.82041997)
(-0.12331723 2.9983308 -0.82128894)
(0.12161648 2.8118906 -1.3230751)
(0.12239883 2.8767843 -1.1955931)
(0.86406541 2.027915 -2.1936877)
(0.92026603 2.182312 -2.0290287)
(-2.0128808 2.2041502 -0.86899513)
(-2.0125039 2.2037172 -0.87076747)
(-2.0119796 2.2031219 -0.87321603)
(-1.7724531 2.3037386 -1.1172607)
(-1.0574239 -2.5514033 -1.4233135)
(-1.0983183 -2.6596663 -1.1955931)
(-0.96246576 -2.9621651 0)
(-1.4140009 -2.7751331 0)
(-1.8307186 -2.519768 0)
(2.3717992 -1.2310581 -1.6129576)
(2.3631771 -1.2262182 -1.6324086)
(2.2380569 -1.430396 -1.6324086)
(2.3508418 -1.4973459 -1.3742237)
(2.592176 -0.57865012 -1.6324086)
(0.29050335 -1.1560322 -2.8864174)
(0.38207838 0.6186133 -3.0379128)
(0.37514389 0.60836917 -3.039876)
(0.3396574 0.63011533 -3.039876)
(0.34507746 0.64128751 -3.0379128)
(0.33887342 0.54935545 -3.0508811)
(0.31169707 0.49847734 -3.060029)
(0.30665156 0.56910104 -3.0508811)
(0.27982384 0.52602297 -3.0589435)
(-1.5026712 0.72952986 -2.6346319)
(-1.4677072 0.70918113 -2.6638489)
(0.70796949 -1.0335493 -2.8561339)
(0.8019461 -1.8572577 -2.3756874)
(0.7074185 -1.5947717 -2.5787861)
(-0.66782802 -1.4848361 -2.6638489)
(-0.7074185 -1.5947717 -2.5787861)
(-0.70248681 -0.23293205 -3.0343072)
(-0.69230187 -0.22861302 -3.0379128)
(-0.6756199 -0.26888686 -3.0379128)
(-0.70692933 -0.27850807 -3.0272851)
(-0.74661857 -0.29387093 -3.0134177)
(-0.78792608 -0.31281954 -2.9986162)
(-0.78870332 -0.31322864 -2.9983311)
(-0.80904078 -0.3239378 -2.9908714)
(0.12477256 -2.9862301 -0.85817832)
(0.12514324 -2.9831481 -0.86757416)
(0.12514713 -2.9828632 -0.86845052)
(0.12514324 -2.9823959 -0.86988962)
(0.12513168 -2.9817579 -0.87185603)
(0.12511271 -2.9809649 -0.87430114)