/*--------------------------------*- C++ -*----------------------------------*\
  =========                 |
  \\      /  F ield         | OpenFOAM: The Open Source CFD Toolbox
   \\    /   O peration     | Website:  https://openfoam.org
    \\  /    A nd           | Version:  12
     \\/     M anipulation  |
\*---------------------------------------------------------------------------*/
FoamFile
{
    format      ascii;
    class       polyBoundaryMesh;
    location    "constant/air1/polyMesh";
    object      boundary;
}
// * * * * * * * * * * * * * * * * * * * * * * * * * * * * * * * * * * * * * //

6
(
    inlet
    {
        type            patch;
        nFaces          758;
        startFace       334405;
    }
    outlet
    {
        type            patch;
        nFaces          1142;
        startFace       335163;
    }
    walls
    {
        type            wall;
        inGroups        List<word> 1(wall);
        nFaces          8602;
        startFace       336305;
    }
    air1_to_solid
    {
        type            mappedWall;
        inGroups        List<word> 
2
(
wall
mapped
)
;
        nFaces          33767;
        startFace       344907;
        neighbourRegion solid;
        neighbourPatch  solid_to_air1;
        transformType   none;
    }
    air1_to_lid
    {
        type            mappedWall;
        inGroups        List<word> 
2
(
wall
mapped
)
;
        nFaces          4982;
        startFace       378674;
        neighbourRegion lid;
        neighbourPatch  lid_to_air1;
        transformType   none;
    }
    procBoundary0to1
    {
        type            processor;
        inGroups        List<word> 1(processor);
        nFaces          2202;
        startFace       383656;
        matchTolerance  0.0001;
        myProcNo        0;
        neighbProcNo    1;
    }
)

// ************************************************************************* //
