/*--------------------------------*- C++ -*----------------------------------*\
  =========                 |
  \\      /  F ield         | OpenFOAM: The Open Source CFD Toolbox
   \\    /   O peration     | Website:  https://openfoam.org
    \\  /    A nd           | Version:  dev
     \\/     M anipulation  |
\*---------------------------------------------------------------------------*/
FoamFile
{
    format      ascii;
    class       volScalarField;
    object      epsilon;
}
// * * * * * * * * * * * * * * * * * * * * * * * * * * * * * * * * * * * * * //

epsilonInlet      0;
mixingLengthInlet 0.007;

dimensions      [0 2 -3 0 0 0 0];

internalField   uniform $epsilonInlet;

boundaryField
{
    
    air2_to_water
    {
        type            compressible::epsilonWallFunction;
        value           uniform $epsilonInlet;
    }
    
    air2_to_solid
    {
        type            compressible::epsilonWallFunction;
        value           uniform $epsilonInlet;
    }


    air2_to_lid
    {
        type            compressible::epsilonWallFunction;
        value           uniform $epsilonInlet;
    }

    #includeEtc "caseDicts/setConstraintTypes"
}


// ************************************************************************* //
