/*--------------------------------*- C++ -*----------------------------------*\
  =========                 |
  \\      /  F ield         | OpenFOAM: The Open Source CFD Toolbox
   \\    /   O peration     | Website:  https://openfoam.org
    \\  /    A nd           | Version:  12
     \\/     M anipulation  |
\*---------------------------------------------------------------------------*/
FoamFile
{
    format      ascii;
    class       polyBoundaryMesh;
    location    "constant/polyMesh";
    object      boundary;
}
// * * * * * * * * * * * * * * * * * * * * * * * * * * * * * * * * * * * * * //

3
(
    inlet
    {
        type            patch;
        nFaces          776;
        startFace       739868;
    }
    outlet
    {
        type            patch;
        nFaces          3316;
        startFace       740644;
    }
    walls
    {
        type            wall;
        inGroups        List<word> 1(wall);
        nFaces          16833;
        startFace       743960;
    }
)

// ************************************************************************* //
