/*--------------------------------*- C++ -*----------------------------------*\
  =========                 |
  \\      /  F ield         | OpenFOAM: The Open Source CFD Toolbox
   \\    /   O peration     | Website:  https://openfoam.org
    \\  /    A nd           | Version:  dev
     \\/     M anipulation  |
\*---------------------------------------------------------------------------*/
FoamFile
{
    format      ascii;
    class       dictionary;
    object      topoSetDict;
}

// * * * * * * * * * * * * * * * * * * * * * * * * * * * * * * * * * * * * * //

#include "$FOAM_CASE/system/blockMeshDict"

actions
(
    /*{
        name    cs;
        type    cellSet;
        action  new;
        source  sphereToCell;
        centre  (0 0 0);
        radius  $!geometry/sphere/radius;
    }*/
    {
        name    fluid;
        type    faceSet;
        action  new;
        source  patchToFace;
        patch     inlet;
    }
    
    {
        name    fluid;
        type    cellSet;
        action  new;
        source  faceToCell;
        set     fluid;
        option	any;
    }
    
    {
        name    fluid;
        type    cellZoneSet;
        action  new;
        source  setToCellZone;
        set     fluid;
    }
    
    {
        name    outlet;
        type    faceSet;
        action  new;
        source  patchToFace;
        patch     outlet;
    }
    
    {
        name    outlet;
        type    cellSet;
        action  new;
        source  faceToCell;
        set     outlet;
        option	any;
    }
    
    {
        name    fluid;
        type    cellZoneSet;
        action  add;
        source  setToCellZone;
        set     outlet;
    }
    
    {
        name    walls;
        type    faceSet;
        action  new;
        source  patchToFace;
        patch     walls;
    }
    
    {
        name    walls;
        type    cellSet;
        action  new;
        source  faceToCell;
        set     walls;
        option	any;
    }
    
    {
        name    fluid;
        type    cellZoneSet;
        action  add;
        source  setToCellZone;
        set     walls;
    }
);

// ************************************************************************* //
