/*--------------------------------*- C++ -*----------------------------------*\
  =========                 |
  \\      /  F ield         | OpenFOAM: The Open Source CFD Toolbox
   \\    /   O peration     | Website:  https://openfoam.org
    \\  /    A nd           | Version:  12
     \\/     M anipulation  |
\*---------------------------------------------------------------------------*/
FoamFile
{
    format      ascii;
    class       polyBoundaryMesh;
    location    "constant/solid/polyMesh";
    object      boundary;
}
// * * * * * * * * * * * * * * * * * * * * * * * * * * * * * * * * * * * * * //

5
(
    solid_to_air1
    {
        type            mappedWall;
        inGroups        List<word> 
2
(
wall
mapped
)
;
        nFaces          19529;
        startFace       53554;
        neighbourRegion air1;
        neighbourPatch  air1_to_solid;
        transformType   none;
    }
    solid_to_water
    {
        type            mappedWall;
        inGroups        List<word> 
2
(
wall
mapped
)
;
        nFaces          14925;
        startFace       73083;
        neighbourRegion water;
        neighbourPatch  water_to_solid;
        transformType   none;
    }
    solid_to_air2
    {
        type            mappedWall;
        inGroups        List<word> 
2
(
wall
mapped
)
;
        nFaces          727;
        startFace       88008;
        neighbourRegion air2;
        neighbourPatch  air2_to_solid;
        transformType   none;
    }
    solid_to_lid
    {
        type            mappedWall;
        inGroups        List<word> 
2
(
wall
mapped
)
;
        nFaces          975;
        startFace       88735;
        neighbourRegion lid;
        neighbourPatch  lid_to_solid;
        transformType   none;
    }
    procBoundary0to1
    {
        type            processor;
        inGroups        List<word> 1(processor);
        nFaces          334;
        startFace       89710;
        matchTolerance  0.0001;
        myProcNo        0;
        neighbProcNo    1;
    }
)

// ************************************************************************* //
