/*--------------------------------*- C++ -*----------------------------------*\
| =========                 |                                                 |
| \\      /  F ield         | OpenFOAM: The Open Source CFD Toolbox           |
|  \\    /   O peration     | Version:  v2012                                 |
|   \\  /    A nd           | Website:  www.openfoam.com                      |
|    \\/     M anipulation  |                                                 |
\*---------------------------------------------------------------------------*/
FoamFile
{
    version     2.0;
    format      ascii;
    class       polyBoundaryMesh;
    location    "constant/polyMesh";
    object      boundary;
}
// * * * * * * * * * * * * * * * * * * * * * * * * * * * * * * * * * * * * * //

7
(
    inlet
    {
        type            patch;
        nFaces          400;
        startFace       46000;
    }
    outlet
    {
        type            patch;
        nFaces          400;
        startFace       46400;
    }
    top
    {
        type            patch;
        nFaces          0;
        startFace       46800;
    }
    bottom
    {
        type            patch;
        nFaces          800;
        startFace       46800;
    }
    sides
    {
        type            patch;
        nFaces          800;
        startFace       47600;
    }
    procBoundary0to1
    {
        type            processor;
        inGroups        1(processor);
        nFaces          800;
        startFace       48400;
        matchTolerance  0.0001;
        transform       unknown;
        myProcNo        0;
        neighbProcNo    1;
    }
    procBoundary0to2
    {
        type            processor;
        inGroups        1(processor);
        nFaces          800;
        startFace       49200;
        matchTolerance  0.0001;
        transform       unknown;
        myProcNo        0;
        neighbProcNo    2;
    }
)

// ************************************************************************* //
