/*--------------------------------*- C++ -*----------------------------------*\
  =========                 |
  \\      /  F ield         | OpenFOAM: The Open Source CFD Toolbox
   \\    /   O peration     | Website:  https://openfoam.org
    \\  /    A nd           | Version:  dev
     \\/     M anipulation  |
\*---------------------------------------------------------------------------*/
FoamFile
{
    format      ascii;
    class       volScalarField;
    object      p_rgh;
}
// * * * * * * * * * * * * * * * * * * * * * * * * * * * * * * * * * * * * * //

#include "$FOAM_CASE/constant/initialConditions"

dimensions      [1 -1 -2 0 0 0 0];

internalField   uniform 0;

boundaryField
{
    outlet
    {
        type            fixedValue;
        value           $internalField;
    }

    inlet
    {
        type            fixedFluxPressure;
        value           $internalField;
    }
    
    air1_to_solid
    {
        $inlet;
    }
    
    air1_to_lid
    {
        $inlet;
    }

    walls
    {
        $inlet;
    }

    #includeEtc "caseDicts/setConstraintTypes"
}


// ************************************************************************* //
