/*--------------------------------*- C++ -*----------------------------------*\
  =========                 |
  \\      /  F ield         | OpenFOAM: The Open Source CFD Toolbox
   \\    /   O peration     | Website:  https://openfoam.org
    \\  /    A nd           | Version:  12
     \\/     M anipulation  |
\*---------------------------------------------------------------------------*/
FoamFile
{
    format      ascii;
    class       polyBoundaryMesh;
    location    "constant/solid/polyMesh";
    object      boundary;
}
// * * * * * * * * * * * * * * * * * * * * * * * * * * * * * * * * * * * * * //

4
(
    solid_to_air1
    {
        type            mappedWall;
        inGroups        List<word> 1(wall);
        nFaces          67286;
        startFace       230091;
        neighbourRegion air1;
        neighbourPatch  air1_to_solid;
        transformType   none;
    }
    solid_to_water
    {
        type            mappedWall;
        inGroups        List<word> 1(wall);
        nFaces          29802;
        startFace       297377;
        neighbourRegion water;
        neighbourPatch  water_to_solid;
        transformType   none;
    }
    solid_to_air2
    {
        type            mappedWall;
        inGroups        List<word> 1(wall);
        nFaces          2320;
        startFace       327179;
        neighbourRegion air2;
        neighbourPatch  air2_to_solid;
        transformType   none;
    }
    solid_to_lid
    {
        type            mappedWall;
        inGroups        List<word> 1(wall);
        nFaces          1464;
        startFace       329499;
        neighbourRegion lid;
        neighbourPatch  lid_to_solid;
        transformType   none;
    }
)

// ************************************************************************* //
