/*--------------------------------*- C++ -*----------------------------------*\
  =========                 |
  \\      /  F ield         | OpenFOAM: The Open Source CFD Toolbox
   \\    /   O peration     | Website:  https://openfoam.org
    \\  /    A nd           | Version:  dev
     \\/     M anipulation  |
\*---------------------------------------------------------------------------*/
FoamFile
{
    format      ascii;
    class       polyBoundaryMesh;
    location    "constant/solid/polyMesh";
    object      boundary;
}
// * * * * * * * * * * * * * * * * * * * * * * * * * * * * * * * * * * * * * //

6
(
    solid_to_water
    {
        type            mappedWall;
        inGroups        List<word> 
2
(
wall
mapped
)
;
        nFaces          2318;
        startFace       27465;
        neighbourRegion water;
        neighbourPatch  water_to_solid;
        transformType   none;
    }
    solid_to_air
    {
        type            mappedWall;
        inGroups        List<word> 
2
(
wall
mapped
)
;
        nFaces          4818;
        startFace       29783;
        neighbourRegion air;
        neighbourPatch  air_to_solid;
        transformType   none;
    }
    procBoundary9to1
    {
        type            processor;
        inGroups        List<word> 1(processor);
        nFaces          171;
        startFace       34601;
        matchTolerance  0.0001;
        myProcNo        9;
        neighbProcNo    1;
    }
    procBoundary9to2
    {
        type            processor;
        inGroups        List<word> 1(processor);
        nFaces          81;
        startFace       34772;
        matchTolerance  0.0001;
        myProcNo        9;
        neighbProcNo    2;
    }
    procBoundary9to10
    {
        type            processor;
        inGroups        List<word> 1(processor);
        nFaces          154;
        startFace       34853;
        matchTolerance  0.0001;
        myProcNo        9;
        neighbProcNo    10;
    }
    procBoundary9to11
    {
        type            processor;
        inGroups        List<word> 1(processor);
        nFaces          132;
        startFace       35007;
        matchTolerance  0.0001;
        myProcNo        9;
        neighbProcNo    11;
    }
)

// ************************************************************************* //
