/*--------------------------------*- C++ -*----------------------------------*\
  =========                 |
  \\      /  F ield         | OpenFOAM: The Open Source CFD Toolbox
   \\    /   O peration     | Website:  https://openfoam.org
    \\  /    A nd           | Version:  dev
     \\/     M anipulation  |
\*---------------------------------------------------------------------------*/
FoamFile
{
    format      ascii;
    class       polyBoundaryMesh;
    location    "constant/solid/polyMesh";
    object      boundary;
}
// * * * * * * * * * * * * * * * * * * * * * * * * * * * * * * * * * * * * * //

11
(
    solid_to_water
    {
        type            mappedWall;
        inGroups        List<word> 
2
(
wall
mapped
)
;
        nFaces          3958;
        startFace       27667;
        neighbourRegion water;
        neighbourPatch  water_to_solid;
        transformType   none;
    }
    solid_to_air
    {
        type            mappedWall;
        inGroups        List<word> 
2
(
wall
mapped
)
;
        nFaces          4434;
        startFace       31625;
        neighbourRegion air;
        neighbourPatch  air_to_solid;
        transformType   none;
    }
    procBoundary2to0
    {
        type            processor;
        inGroups        List<word> 1(processor);
        nFaces          120;
        startFace       36059;
        matchTolerance  0.0001;
        myProcNo        2;
        neighbProcNo    0;
    }
    procBoundary2to1
    {
        type            processor;
        inGroups        List<word> 1(processor);
        nFaces          216;
        startFace       36179;
        matchTolerance  0.0001;
        myProcNo        2;
        neighbProcNo    1;
    }
    procBoundary2to3
    {
        type            processor;
        inGroups        List<word> 1(processor);
        nFaces          50;
        startFace       36395;
        matchTolerance  0.0001;
        myProcNo        2;
        neighbProcNo    3;
    }
    procBoundary2to4
    {
        type            processor;
        inGroups        List<word> 1(processor);
        nFaces          46;
        startFace       36445;
        matchTolerance  0.0001;
        myProcNo        2;
        neighbProcNo    4;
    }
    procBoundary2to5
    {
        type            processor;
        inGroups        List<word> 1(processor);
        nFaces          30;
        startFace       36491;
        matchTolerance  0.0001;
        myProcNo        2;
        neighbProcNo    5;
    }
    procBoundary2to7
    {
        type            processor;
        inGroups        List<word> 1(processor);
        nFaces          53;
        startFace       36521;
        matchTolerance  0.0001;
        myProcNo        2;
        neighbProcNo    7;
    }
    procBoundary2to8
    {
        type            processor;
        inGroups        List<word> 1(processor);
        nFaces          96;
        startFace       36574;
        matchTolerance  0.0001;
        myProcNo        2;
        neighbProcNo    8;
    }
    procBoundary2to9
    {
        type            processor;
        inGroups        List<word> 1(processor);
        nFaces          81;
        startFace       36670;
        matchTolerance  0.0001;
        myProcNo        2;
        neighbProcNo    9;
    }
    procBoundary2to10
    {
        type            processor;
        inGroups        List<word> 1(processor);
        nFaces          88;
        startFace       36751;
        matchTolerance  0.0001;
        myProcNo        2;
        neighbProcNo    10;
    }
)

// ************************************************************************* //
