/*--------------------------------*- C++ -*----------------------------------*\
  =========                 |
  \\      /  F ield         | OpenFOAM: The Open Source CFD Toolbox
   \\    /   O peration     | Website:  https://openfoam.org
    \\  /    A nd           | Version:  dev
     \\/     M anipulation  |
\*---------------------------------------------------------------------------*/
FoamFile
{
    format      ascii;
    class       volScalarField;
    location    "0/solid";
    object      T;
}
// * * * * * * * * * * * * * * * * * * * * * * * * * * * * * * * * * * * * * //

dimensions      [0 0 0 1 0 0 0];

internalField   uniform 298;

boundaryField
{
    solid_to_water
    {
        type            coupledTemperature;
        value           uniform 298;
    }
    solid_to_air
    {
        type            coupledTemperature;
        value           uniform 298;
    }
    procBoundary0to1
    {
        type            processor;
        value           uniform 298;
    }
    procBoundary0to2
    {
        type            processor;
        value           uniform 298;
    }
    procBoundary0to5
    {
        type            processor;
        value           uniform 298;
    }
}


// ************************************************************************* //
