/*--------------------------------*- C++ -*----------------------------------*\
  =========                 |
  \\      /  F ield         | OpenFOAM: The Open Source CFD Toolbox
   \\    /   O peration     | Website:  https://openfoam.org
    \\  /    A nd           | Version:  12
     \\/     M anipulation  |
\*---------------------------------------------------------------------------*/
FoamFile
{
    format      ascii;
    class       featureEdgeMesh;
    location    "constant/geometry";
    object      flatPotNew.eMesh;
}
// * * * * * * * * * * * * * * * * * * * * * * * * * * * * * * * * * * * * * //


// points:

426
(
(8.9833145 -25.288109 51.297173)
(12.946707 -23.523493 49.958286)
(13.417704 -23.313791 50.316498)
(-8.9833145 25.288109 51.297173)
(-12.946707 23.523493 49.958286)
(-13.417704 23.313791 50.316498)
(8.718915 -25.405827 52.482861)
(8.7857447 -25.376072 51.87677)
(-8.718915 25.405827 52.482861)
(-8.7857447 25.376072 51.87677)
(24.604305 5.2298059 65.183037)
(22.979305 10.231046 65.183037)
(25.15398 0 65.183037)
(24.604305 -5.2298059 65.183037)
(12.57699 21.783987 65.183037)
(7.7730074 23.922857 65.183037)
(7.7730074 -23.922857 65.183037)
(12.57699 -21.783987 65.183037)
(-12.57699 21.783987 65.183037)
(-16.831299 18.69305 65.183037)
(-2.6293068 25.016186 65.183037)
(-7.7730074 23.922857 65.183037)
(-20.349998 14.785139 65.183037)
(-12.57699 -21.783987 65.183037)
(-7.7730074 -23.922857 65.183037)
(-2.6293068 -25.016186 65.183037)
(-22.979305 10.231046 65.183037)
(-24.604305 5.2298059 65.183037)
(16.831299 -18.69305 65.183037)
(20.349998 -14.785139 65.183037)
(22.979305 -10.231046 65.183037)
(2.6293068 25.016186 65.183037)
(16.831299 18.69305 65.183037)
(20.349998 14.785139 65.183037)
(-24.604305 -5.2298059 65.183037)
(-22.979305 -10.231046 65.183037)
(2.6293068 -25.016186 65.183037)
(-20.349998 -14.785139 65.183037)
(-25.15398 0 65.183037)
(-16.831299 -18.69305 65.183037)
(24.577168 10.942459 65.183037)
(26.315163 5.5934601 65.183037)
(26.315163 5.5934601 -0.21731539)
(24.577168 10.942459 -0.21731539)
(26.903057 0 65.183037)
(26.903057 0 -0.21731539)
(26.315163 -5.5934601 65.183037)
(24.577168 -10.942459 65.183037)
(24.577168 -10.942459 -0.21731539)
(26.315163 -5.5934601 -0.21731539)
(-13.451529 -23.298733 65.183037)
(-18.001659 -19.992868 65.183037)
(-18.001659 -19.992868 -0.21731539)
(-13.451529 -23.298733 -0.21731539)
(8.3135023 -25.586329 65.183037)
(2.8121347 -26.75568 65.183037)
(2.8121347 -26.75568 -0.21731539)
(8.3135023 -25.586329 -0.21731539)
(-24.577168 -10.942459 -0.21731539)
(-21.76503 -15.813221 -0.21731539)
(-21.76503 -15.813221 65.183037)
(-24.577168 -10.942459 65.183037)
(2.8121347 26.75568 65.183037)
(8.3135023 25.586329 65.183037)
(8.3135023 25.586329 -0.21731539)
(2.8121347 26.75568 -0.21731539)
(-2.8121347 -26.75568 65.183037)
(-8.3135023 -25.586329 65.183037)
(-8.3135023 -25.586329 -0.21731539)
(-2.8121347 -26.75568 -0.21731539)
(13.451529 23.298733 65.183037)
(18.001659 19.992868 65.183037)
(18.001659 19.992868 -0.21731539)
(13.451529 23.298733 -0.21731539)
(-24.577168 10.942459 -0.21731539)
(-26.315163 5.5934601 -0.21731539)
(-26.315163 5.5934601 65.183037)
(-24.577168 10.942459 65.183037)
(-21.76503 15.813221 -0.21731539)
(-21.76503 15.813221 65.183037)
(18.001659 -19.992868 65.183037)
(13.451529 -23.298733 65.183037)
(13.451529 -23.298733 -0.21731539)
(18.001659 -19.992868 -0.21731539)
(-8.3135023 25.586329 65.183037)
(-2.8121347 26.75568 65.183037)
(-2.8121347 26.75568 -0.21731539)
(-8.3135023 25.586329 -0.21731539)
(-18.001659 19.992868 -0.21731539)
(-18.001659 19.992868 65.183037)
(21.76503 -15.813221 65.183037)
(21.76503 -15.813221 -0.21731539)
(-13.451529 23.298733 65.183037)
(-13.451529 23.298733 -0.21731539)
(21.76503 15.813221 65.183037)
(21.76503 15.813221 -0.21731539)
(-26.903057 0 -0.21731539)
(-26.903057 0 65.183037)
(-26.315163 -5.5934601 65.183037)
(-26.315163 -5.5934601 -0.21731539)
(22.979305 10.231046 1.5317614)
(24.604305 5.2298059 1.5317614)
(24.604305 5.2298059 59.368748)
(22.979305 10.231046 59.368748)
(22.979305 10.231046 65.167068)
(24.604305 5.2298059 65.167068)
(25.15398 0 1.5317614)
(25.15398 0 59.368748)
(25.15398 0 65.167068)
(24.604305 -5.2298059 1.5317614)
(24.604305 -5.2298059 59.368748)
(24.604305 -5.2298059 65.167068)
(12.57699 21.783987 59.368748)
(7.7730074 23.922857 59.368748)
(7.7730074 23.922857 1.5317614)
(12.57699 21.783987 1.5317614)
(7.7730074 23.922857 65.167068)
(12.57699 21.783987 65.167068)
(7.7730074 -23.922857 59.368748)
(12.57699 -21.783987 59.368748)
(12.57699 -21.783987 1.5317614)
(7.7730074 -23.922857 1.5317614)
(12.57699 -21.783987 65.167068)
(7.7730074 -23.922857 65.167068)
(-12.57699 21.783987 59.368748)
(-16.831299 18.69305 59.368748)
(-16.831299 18.69305 1.5317614)
(-12.57699 21.783987 1.5317614)
(-16.831299 18.69305 65.167068)
(-12.57699 21.783987 65.167068)
(-2.6293068 25.016186 59.368748)
(-7.7730074 23.922857 59.368748)
(-7.7730074 23.922857 1.5317614)
(-2.6293068 25.016186 1.5317614)
(-7.7730074 23.922857 65.167068)
(-2.6293068 25.016186 65.167068)
(-20.349998 14.785139 59.368748)
(-20.349998 14.785139 1.5317614)
(-20.349998 14.785139 65.167068)
(-12.57699 -21.783987 59.368748)
(-7.7730074 -23.922857 59.368748)
(-7.7730074 -23.922857 1.5317614)
(-12.57699 -21.783987 1.5317614)
(-7.7730074 -23.922857 65.167068)
(-12.57699 -21.783987 65.167068)
(-2.6293068 -25.016186 59.368748)
(-2.6293068 -25.016186 1.5317614)
(-2.6293068 -25.016186 65.167068)
(-22.979305 10.231046 59.368748)
(-24.604305 5.2298059 59.368748)
(-24.604305 5.2298059 1.5317614)
(-22.979305 10.231046 1.5317614)
(-24.604305 5.2298059 65.167068)
(-22.979305 10.231046 65.167068)
(20.349998 -14.785139 1.5317614)
(16.831299 -18.69305 1.5317614)
(16.831299 -18.69305 59.368748)
(20.349998 -14.785139 59.368748)
(20.349998 -14.785139 65.167068)
(16.831299 -18.69305 65.167068)
(22.979305 -10.231046 1.5317614)
(22.979305 -10.231046 59.368748)
(22.979305 -10.231046 65.167068)
(2.6293068 25.016186 59.368748)
(2.6293068 25.016186 1.5317614)
(2.6293068 25.016186 65.167068)
(16.831299 18.69305 59.368748)
(16.831299 18.69305 1.5317614)
(16.831299 18.69305 65.167068)
(20.349998 14.785139 1.5317614)
(20.349998 14.785139 59.368748)
(20.349998 14.785139 65.167068)
(-24.604305 -5.2298059 59.368748)
(-22.979305 -10.231046 59.368748)
(-22.979305 -10.231046 1.5317614)
(-24.604305 -5.2298059 1.5317614)
(-22.979305 -10.231046 65.167068)
(-24.604305 -5.2298059 65.167068)
(2.6293068 -25.016186 59.368748)
(2.6293068 -25.016186 1.5317614)
(2.6293068 -25.016186 65.167068)
(-20.349998 -14.785139 59.368748)
(-20.349998 -14.785139 1.5317614)
(-20.349998 -14.785139 65.167068)
(-25.15398 0 59.368748)
(-25.15398 0 1.5317614)
(-25.15398 0 65.167068)
(-16.831299 -18.69305 59.368748)
(-16.831299 -18.69305 1.5317614)
(-16.831299 -18.69305 65.167068)
(-13.540465 -23.234116 54.503582)
(-13.451529 -23.298733 54.609898)
(-13.797489 -23.047377 54.196331)
(-13.870803 -22.99411 54.05965)
(-14.080585 -22.841696 53.668549)
(-14.118098 -22.814442 53.544281)
(-14.255548 -22.714577 53.088947)
(-14.266723 -22.706459 52.974514)
(-14.314732 -22.671577 52.482861)
(-14.303874 -22.679466 52.371674)
(-14.255548 -22.714577 51.87677)
(-14.080585 -22.841696 51.297173)
(-13.681499 -23.131649 50.630733)
(-13.797489 -23.047377 50.76939)
(-13.451529 -23.298733 50.355824)
(-14.012602 -22.891088 51.170429)
(13.540465 23.234116 54.503582)
(13.451529 23.298733 54.609898)
(13.797489 23.047377 54.196331)
(13.870803 22.99411 54.05965)
(14.080585 22.841696 53.668549)
(14.118098 22.814442 53.544281)
(14.255548 22.714577 53.088947)
(14.266723 22.706459 52.974514)
(14.314732 22.671577 52.482861)
(14.303874 22.679466 52.371674)
(14.255548 22.714577 51.87677)
(14.080585 22.841696 51.297173)
(13.681499 23.131649 50.630733)
(13.797489 23.047377 50.76939)
(13.451529 23.298733 50.355824)
(14.012602 22.891088 51.170429)
(12.120729 23.891241 49.644966)
(12.414855 23.760288 49.710407)
(11.263208 24.273035 49.583702)
(11.845393 24.01383 49.583702)
(12.712468 23.627783 49.849113)
(12.946707 23.523493 49.958286)
(13.239796 23.393002 50.18119)
(13.417704 23.313791 50.316498)
(11.845393 24.01383 55.382019)
(11.263208 24.273035 55.382019)
(12.125333 23.889193 55.319733)
(12.414855 23.760288 55.25531)
(12.642267 23.659039 55.149323)
(12.946707 23.523493 55.007435)
(13.122609 23.445177 54.873653)
(13.417704 23.313791 54.649223)
(11.061786 24.362715 55.3372)
(10.693747 24.526575 55.25531)
(10.55224 24.589579 55.189362)
(10.161895 24.763371 55.007435)
(10.079339 24.800127 54.944649)
(9.6908979 24.973072 54.649223)
(9.6574574 24.987961 54.610344)
(9.3013401 25.146515 54.196331)
(9.3002539 25.146999 54.194359)
(9.2845707 25.15398 54.165924)
(9.0039644 25.278915 53.702641)
(8.9833145 25.288109 53.668549)
(8.8081474 25.366098 53.154671)
(8.7857447 25.376072 53.088947)
(8.7279577 25.4018 52.564869)
(8.718915 25.405827 52.482861)
(8.7774467 25.379766 51.952034)
(8.7857447 25.376072 51.87677)
(8.9833145 25.288109 51.297173)
(9.2845707 25.15398 50.799797)
(9.3013401 25.146515 50.76939)
(9.3029165 25.145813 50.767559)
(9.6908979 24.973072 50.316498)
(10.265754 24.717131 49.909882)
(10.693747 24.526575 49.710407)
(10.863279 24.451096 49.672688)
(10.161895 24.763371 49.958286)
(9.7354717 24.953226 50.282597)
(8.9681158 25.294876 51.341759)
(-12.120729 -23.891241 49.644966)
(-12.414855 -23.760288 49.710407)
(-11.263208 -24.273035 49.583702)
(-11.845393 -24.01383 49.583702)
(-12.712468 -23.627783 49.849113)
(-12.946707 -23.523493 49.958286)
(-13.239796 -23.393002 50.18119)
(-13.417704 -23.313791 50.316498)
(-11.845393 -24.01383 55.382019)
(-11.263208 -24.273035 55.382019)
(-12.125333 -23.889193 55.319733)
(-12.414855 -23.760288 55.25531)
(-12.642267 -23.659039 55.149323)
(-12.946707 -23.523493 55.007435)
(-13.122609 -23.445177 54.873653)
(-13.417704 -23.313791 54.649223)
(-11.061786 -24.362715 55.3372)
(-10.693747 -24.526575 55.25531)
(-10.55224 -24.589579 55.189362)
(-10.161895 -24.763371 55.007435)
(-10.079339 -24.800127 54.944649)
(-9.6908979 -24.973072 54.649223)
(-9.6574574 -24.987961 54.610344)
(-9.3013401 -25.146515 54.196331)
(-9.3002539 -25.146999 54.194359)
(-9.2845707 -25.15398 54.165924)
(-9.0039644 -25.278915 53.702641)
(-8.9833145 -25.288109 53.668549)
(-8.8081474 -25.366098 53.154671)
(-8.7857447 -25.376072 53.088947)
(-8.7279577 -25.4018 52.564869)
(-8.718915 -25.405827 52.482861)
(-8.7774467 -25.379766 51.952034)
(-8.7857447 -25.376072 51.87677)
(-9.2845707 -25.15398 50.799797)
(-9.3013401 -25.146515 50.76939)
(-8.9833145 -25.288109 51.297173)
(-9.3029165 -25.145813 50.767559)
(-9.6908979 -24.973072 50.316498)
(-10.265754 -24.717131 49.909882)
(-10.693747 -24.526575 49.710407)
(-10.863279 -24.451096 49.672688)
(-10.161895 -24.763371 49.958286)
(-9.7354717 -24.953226 50.282597)
(-8.9681158 -25.294876 51.341759)
(13.451529 -23.298733 54.609898)
(13.681499 -23.131649 54.334988)
(13.797489 -23.047377 54.196331)
(14.012602 -22.891088 53.795292)
(14.080585 -22.841696 53.668549)
(14.220569 -22.739992 53.204826)
(14.255548 -22.714577 53.088947)
(14.303874 -22.679466 52.594048)
(14.314732 -22.671577 52.482861)
(14.266723 -22.706459 51.991207)
(14.255548 -22.714577 51.87677)
(13.540465 -23.234116 50.462139)
(13.451529 -23.298733 50.355824)
(13.797489 -23.047377 50.76939)
(13.870803 -22.99411 50.906071)
(14.080585 -22.841696 51.297173)
(14.118098 -22.814442 51.42144)
(-13.451529 23.298733 54.609898)
(-13.681499 23.131649 54.334988)
(-13.797489 23.047377 54.196331)
(-14.012602 22.891088 53.795292)
(-14.080585 22.841696 53.668549)
(-14.220569 22.739992 53.204826)
(-14.255548 22.714577 53.088947)
(-14.303874 22.679466 52.594048)
(-14.314732 22.671577 52.482861)
(-14.266723 22.706459 51.991207)
(-14.255548 22.714577 51.87677)
(-13.540465 23.234116 50.462139)
(-13.451529 23.298733 50.355824)
(-13.797489 23.047377 50.76939)
(-13.870803 22.99411 50.906071)
(-14.080585 22.841696 51.297173)
(-14.118098 22.814442 51.42144)
(10.863279 -24.451096 55.293034)
(11.263208 -24.273035 55.382019)
(10.693747 -24.526575 55.25531)
(10.265754 -24.717131 55.05584)
(10.161895 -24.763371 55.007435)
(9.7354717 -24.953226 54.683121)
(9.6908979 -24.973072 54.649223)
(9.3029165 -25.145813 54.198162)
(9.3013401 -25.146515 54.196331)
(9.2845707 -25.15398 54.165924)
(8.9833145 -25.288109 53.668549)
(8.9681158 -25.294876 53.623962)
(8.7857447 -25.376072 53.088947)
(8.7774467 -25.379766 53.013687)
(8.7279577 -25.4018 52.400852)
(8.8081474 -25.366098 51.81105)
(9.3002539 -25.146999 50.771362)
(9.2845707 -25.15398 50.799797)
(9.0039644 -25.278915 51.263077)
(9.3013401 -25.146515 50.76939)
(10.55224 -24.589579 49.77636)
(10.161895 -24.763371 49.958286)
(11.263208 -24.273035 49.583702)
(11.061786 -24.362715 49.628517)
(10.693747 -24.526575 49.710407)
(10.079339 -24.800127 50.021072)
(9.6908979 -24.973072 50.316498)
(9.6574574 -24.987961 50.355373)
(11.845393 -24.01383 55.382019)
(12.120729 -23.891241 55.320755)
(12.414855 -23.760288 55.25531)
(12.712468 -23.627783 55.116604)
(12.946707 -23.523493 55.007435)
(13.239796 -23.393002 54.784527)
(13.417704 -23.313791 54.649223)
(13.122609 -23.445177 50.092068)
(12.642267 -23.659039 49.816399)
(12.414855 -23.760288 49.710407)
(11.845393 -24.01383 49.583702)
(12.125333 -23.889193 49.645988)
(-10.863279 24.451096 55.293034)
(-11.263208 24.273035 55.382019)
(-10.693747 24.526575 55.25531)
(-10.265754 24.717131 55.05584)
(-10.161895 24.763371 55.007435)
(-9.7354717 24.953226 54.683121)
(-9.6908979 24.973072 54.649223)
(-9.3029165 25.145813 54.198162)
(-9.3013401 25.146515 54.196331)
(-9.2845707 25.15398 54.165924)
(-8.9833145 25.288109 53.668549)
(-8.9681158 25.294876 53.623962)
(-8.7857447 25.376072 53.088947)
(-8.7774467 25.379766 53.013687)
(-8.7279577 25.4018 52.400852)
(-8.8081474 25.366098 51.81105)
(-9.2845707 25.15398 50.799797)
(-9.0039644 25.278915 51.263077)
(-9.3002539 25.146999 50.771362)
(-9.3013401 25.146515 50.76939)
(-10.55224 24.589579 49.77636)
(-10.161895 24.763371 49.958286)
(-11.263208 24.273035 49.583702)
(-11.061786 24.362715 49.628517)
(-10.693747 24.526575 49.710407)
(-10.079339 24.800127 50.021072)
(-9.6908979 24.973072 50.316498)
(-9.6574574 24.987961 50.355373)
(-11.845393 24.01383 55.382019)
(-12.120729 23.891241 55.320755)
(-12.414855 23.760288 55.25531)
(-12.712468 23.627783 55.116604)
(-12.946707 23.523493 55.007435)
(-13.239796 23.393002 54.784527)
(-13.417704 23.313791 54.649223)
(-13.122609 23.445177 50.092068)
(-12.642267 23.659039 49.816399)
(-12.414855 23.760288 49.710407)
(-11.845393 24.01383 49.583702)
(-12.125333 23.889193 49.645988)
)


// edges:

432
(
(10 11)
(12 10)
(13 12)
(14 15)
(16 17)
(18 19)
(20 21)
(19 22)
(23 24)
(24 25)
(26 27)
(28 29)
(29 30)
(17 28)
(31 20)
(30 13)
(32 14)
(21 18)
(33 32)
(11 33)
(34 35)
(36 16)
(35 37)
(25 36)
(38 34)
(37 39)
(27 38)
(15 31)
(39 23)
(22 26)
(40 41)
(42 43)
(41 44)
(45 42)
(46 47)
(48 49)
(50 51)
(52 53)
(54 55)
(56 57)
(58 59)
(60 61)
(62 63)
(64 65)
(66 67)
(68 69)
(70 71)
(72 73)
(63 70)
(73 64)
(74 75)
(76 77)
(67 50)
(53 68)
(78 74)
(77 79)
(80 81)
(82 83)
(84 85)
(86 87)
(44 46)
(49 45)
(88 78)
(79 89)
(85 62)
(65 86)
(47 90)
(91 48)
(89 92)
(93 88)
(81 54)
(6 7)
(57 82)
(92 84)
(8 9)
(87 93)
(90 80)
(83 91)
(71 94)
(95 72)
(75 96)
(97 76)
(94 40)
(43 95)
(66 55)
(60 51)
(98 61)
(97 98)
(69 56)
(99 58)
(59 52)
(99 96)
(100 101)
(102 103)
(104 105)
(101 106)
(107 102)
(105 108)
(106 109)
(110 107)
(108 111)
(112 113)
(114 115)
(116 117)
(118 119)
(120 121)
(122 123)
(124 125)
(126 127)
(128 129)
(130 131)
(132 133)
(134 135)
(125 136)
(137 126)
(138 128)
(139 140)
(141 142)
(143 144)
(140 145)
(146 141)
(147 143)
(148 149)
(150 151)
(152 153)
(154 155)
(156 157)
(158 159)
(160 154)
(157 161)
(162 158)
(119 156)
(155 120)
(159 122)
(163 130)
(133 164)
(135 165)
(109 160)
(161 110)
(111 162)
(166 112)
(115 167)
(117 168)
(131 124)
(127 132)
(129 134)
(167 169)
(170 166)
(168 171)
(169 100)
(103 170)
(171 104)
(172 173)
(174 175)
(176 177)
(178 118)
(121 179)
(123 180)
(173 181)
(182 174)
(183 176)
(145 178)
(179 146)
(180 147)
(184 172)
(175 185)
(177 186)
(181 187)
(188 182)
(189 183)
(149 184)
(185 150)
(186 152)
(113 163)
(164 114)
(165 116)
(187 139)
(142 188)
(144 189)
(136 148)
(151 137)
(153 138)
(190 191)
(192 190)
(193 192)
(194 193)
(195 194)
(196 195)
(197 196)
(198 197)
(199 198)
(200 199)
(200 201)
(202 203)
(204 202)
(205 201)
(203 205)
(206 207)
(208 206)
(209 208)
(210 209)
(211 210)
(212 211)
(213 212)
(214 213)
(215 214)
(216 215)
(216 217)
(218 219)
(220 218)
(221 217)
(219 221)
(222 223)
(224 225)
(225 222)
(223 226)
(226 227)
(227 228)
(228 229)
(229 220)
(230 231)
(232 230)
(233 232)
(234 233)
(235 234)
(236 235)
(237 236)
(207 237)
(231 238)
(238 239)
(239 240)
(240 241)
(241 242)
(242 243)
(243 244)
(244 245)
(245 246)
(247 248)
(246 247)
(248 249)
(249 250)
(250 251)
(251 252)
(252 253)
(254 255)
(253 254)
(256 257)
(257 258)
(259 260)
(258 259)
(261 262)
(263 224)
(262 263)
(264 261)
(265 264)
(260 265)
(266 256)
(255 266)
(267 268)
(269 270)
(270 267)
(268 271)
(271 272)
(272 273)
(273 274)
(274 204)
(275 276)
(277 275)
(278 277)
(279 278)
(280 279)
(281 280)
(282 281)
(191 282)
(276 283)
(283 284)
(284 285)
(285 286)
(286 287)
(287 288)
(288 289)
(289 290)
(290 291)
(291 292)
(292 293)
(293 294)
(294 295)
(295 296)
(296 297)
(297 298)
(299 300)
(298 299)
(301 302)
(303 301)
(304 305)
(302 304)
(306 307)
(308 269)
(307 308)
(309 306)
(310 309)
(305 310)
(311 303)
(300 311)
(312 313)
(313 314)
(314 315)
(315 316)
(316 317)
(317 318)
(318 319)
(319 320)
(320 321)
(321 322)
(323 324)
(325 323)
(326 325)
(327 326)
(328 327)
(322 328)
(329 330)
(330 331)
(331 332)
(332 333)
(333 334)
(334 335)
(335 336)
(336 337)
(337 338)
(338 339)
(340 341)
(342 340)
(343 342)
(344 343)
(345 344)
(339 345)
(346 347)
(348 346)
(349 348)
(350 349)
(351 350)
(352 351)
(353 352)
(354 353)
(355 354)
(356 355)
(357 356)
(358 357)
(359 358)
(6 359)
(7 360)
(360 6)
(7 0)
(0 361)
(361 7)
(362 363)
(363 364)
(364 0)
(365 362)
(366 367)
(368 369)
(369 370)
(370 366)
(367 371)
(371 372)
(372 373)
(373 365)
(347 374)
(374 375)
(375 376)
(376 377)
(377 378)
(378 379)
(379 380)
(380 312)
(1 2)
(2 381)
(381 1)
(382 383)
(384 368)
(385 384)
(383 385)
(1 382)
(324 2)
(386 387)
(388 386)
(389 388)
(390 389)
(391 390)
(392 391)
(393 392)
(394 393)
(395 394)
(396 395)
(397 396)
(398 397)
(399 398)
(8 399)
(9 400)
(400 8)
(9 3)
(3 401)
(401 9)
(402 403)
(404 402)
(403 3)
(405 404)
(406 407)
(408 409)
(409 410)
(410 406)
(407 411)
(411 412)
(412 413)
(413 405)
(387 414)
(414 415)
(415 416)
(416 417)
(417 418)
(418 419)
(419 420)
(420 329)
(4 5)
(5 421)
(421 4)
(422 423)
(424 408)
(425 424)
(423 425)
(4 422)
(341 5)
)

// * * * * * * * * * * * * * * * * * * * * * * * * * * * * * * * * * * * * * //


// ************************************************************************* //
