/*--------------------------------*- C++ -*----------------------------------*\
  =========                 |
  \\      /  F ield         | OpenFOAM: The Open Source CFD Toolbox
   \\    /   O peration     | Website:  https://openfoam.org
    \\  /    A nd           | Version:  12
     \\/     M anipulation  |
\*---------------------------------------------------------------------------*/
FoamFile
{
    format      ascii;
    class       featureEdgeMesh;
    location    "constant/geometry";
    object      flatPotContentNew.eMesh;
}
// * * * * * * * * * * * * * * * * * * * * * * * * * * * * * * * * * * * * * //


// points:

60
(
(25.153982 0 50.090649)
(24.604307 5.2298069 1.5317607)
(24.604307 5.2298069 50.090649)
(25.153982 0 1.5317607)
(22.979305 10.231046 1.5317607)
(22.979305 10.231046 50.090649)
(20.349998 14.785139 1.5317607)
(20.349998 14.785139 50.090649)
(16.831299 18.693052 1.5317607)
(16.831299 18.693052 50.090649)
(12.576991 21.783987 50.090649)
(12.576991 21.783987 1.5317607)
(7.7730079 23.922857 50.090649)
(7.7730079 23.922857 1.5317607)
(2.629307 25.016186 50.090649)
(2.629307 25.016186 1.5317607)
(-2.629307 25.016186 50.090649)
(-2.629307 25.016186 1.5317607)
(-7.7730079 23.922857 50.090649)
(-7.7730079 23.922857 1.5317607)
(-12.576991 21.783987 50.090649)
(-12.576991 21.783987 1.5317607)
(-16.831299 18.693052 50.090649)
(-16.831299 18.693052 1.5317607)
(-20.349998 14.785139 1.5317607)
(-20.349998 14.785139 50.090649)
(-22.979305 10.231046 1.5317607)
(-22.979305 10.231046 50.090649)
(-24.604307 5.2298069 1.5317607)
(-24.604307 5.2298069 50.090649)
(-25.153982 0 1.5317607)
(-25.153982 0 50.090649)
(-24.604307 -5.2298069 1.5317607)
(-24.604307 -5.2298069 50.090649)
(-22.979305 -10.231046 1.5317607)
(-22.979305 -10.231046 50.090649)
(-20.349998 -14.785139 1.5317607)
(-20.349998 -14.785139 50.090649)
(-16.831299 -18.693052 1.5317607)
(-16.831299 -18.693052 50.090649)
(-12.576991 -21.783987 50.090649)
(-12.576991 -21.783987 1.5317607)
(-7.7730079 -23.922857 50.090649)
(-7.7730079 -23.922857 1.5317607)
(-2.629307 -25.016186 50.090649)
(-2.629307 -25.016186 1.5317607)
(2.629307 -25.016186 50.090649)
(2.629307 -25.016186 1.5317607)
(7.7730079 -23.922857 50.090649)
(7.7730079 -23.922857 1.5317607)
(12.576991 -21.783987 50.090649)
(12.576991 -21.783987 1.5317607)
(16.831299 -18.693052 50.090649)
(16.831299 -18.693052 1.5317607)
(20.349998 -14.785139 1.5317607)
(20.349998 -14.785139 50.090649)
(22.979305 -10.231046 1.5317607)
(22.979305 -10.231046 50.090649)
(24.604307 -5.2298069 1.5317607)
(24.604307 -5.2298069 50.090649)
)


// edges:

174
(
(1 2)
(2 0)
(0 3)
(3 1)
(4 5)
(5 2)
(1 4)
(6 7)
(7 5)
(4 6)
(8 9)
(9 7)
(6 8)
(10 9)
(11 10)
(8 11)
(12 10)
(13 12)
(11 13)
(14 12)
(15 14)
(13 15)
(16 14)
(17 16)
(15 17)
(18 16)
(19 18)
(17 19)
(20 18)
(21 20)
(19 21)
(22 20)
(23 22)
(21 23)
(23 24)
(24 25)
(25 22)
(24 26)
(26 27)
(27 25)
(26 28)
(28 29)
(29 27)
(28 30)
(30 31)
(31 29)
(30 32)
(32 33)
(33 31)
(32 34)
(34 35)
(35 33)
(34 36)
(36 37)
(37 35)
(36 38)
(38 39)
(39 37)
(40 39)
(41 40)
(38 41)
(42 40)
(43 42)
(41 43)
(44 42)
(45 44)
(43 45)
(46 44)
(47 46)
(45 47)
(48 46)
(49 48)
(47 49)
(50 48)
(51 50)
(49 51)
(52 50)
(53 52)
(51 53)
(54 55)
(55 52)
(53 54)
(56 57)
(57 55)
(54 56)
(58 59)
(59 57)
(56 58)
(0 59)
(58 3)
(0 1)
(2 4)
(5 6)
(8 10)
(11 12)
(26 25)
(28 27)
(30 29)
(38 40)
(41 42)
(7 8)
(13 14)
(15 16)
(17 18)
(19 20)
(21 22)
(24 22)
(32 31)
(34 33)
(36 35)
(38 37)
(43 44)
(45 46)
(47 48)
(49 50)
(51 52)
(52 54)
(55 56)
(57 58)
(59 3)
(58 1)
(56 1)
(56 4)
(54 4)
(54 6)
(53 6)
(53 8)
(51 8)
(51 11)
(49 11)
(49 13)
(47 13)
(47 15)
(45 15)
(45 17)
(43 17)
(43 19)
(41 19)
(41 21)
(38 21)
(38 23)
(36 23)
(36 24)
(34 24)
(34 26)
(32 26)
(32 28)
(2 59)
(5 59)
(5 57)
(7 57)
(7 55)
(9 55)
(9 52)
(10 52)
(10 50)
(12 50)
(12 48)
(14 48)
(14 46)
(16 46)
(16 44)
(18 44)
(18 42)
(20 42)
(20 40)
(22 40)
(22 39)
(25 39)
(25 37)
(27 37)
(27 35)
(29 35)
(29 33)
)

// * * * * * * * * * * * * * * * * * * * * * * * * * * * * * * * * * * * * * //


// ************************************************************************* //
