/*--------------------------------*- C++ -*----------------------------------*\
  =========                 |
  \\      /  F ield         | OpenFOAM: The Open Source CFD Toolbox
   \\    /   O peration     | Website:  https://openfoam.org
    \\  /    A nd           | Version:  dev
     \\/     M anipulation  |
\*---------------------------------------------------------------------------*/
FoamFile
{
    format      ascii;
    class       volScalarField;
    object      omega;
}
// * * * * * * * * * * * * * * * * * * * * * * * * * * * * * * * * * * * * * //

omegaInlet        0.5;//10;
mixingLengthInlet 0.0035;

dimensions      [0 0 -1 0 0 0 0];

internalField   uniform $omegaInlet;

boundaryField
{
    inlet
    {
        type            turbulentMixingLengthFrequencyInlet;
        mixingLength    $mixingLengthInlet;
        value           uniform $omegaInlet;
    }

    outlet
    {
        type            inletOutlet;
        inletValue      uniform $omegaInlet;
        value           uniform $omegaInlet;
    }
    
    air_to_solid
    {
        type            omegaWallFunction;
        value           uniform $omegaInlet;
    }
    
    air_to_water
    {
        type            omegaWallFunction;
        value           uniform $omegaInlet;
    }

    walls
    {
        type            omegaWallFunction;
        value           uniform $omegaInlet;
    }

    #includeEtc "caseDicts/setConstraintTypes"
}

// ************************************************************************* //
