/*--------------------------------*- C++ -*----------------------------------*\
  =========                 |
  \\      /  F ield         | OpenFOAM: The Open Source CFD Toolbox
   \\    /   O peration     | Website:  https://openfoam.org
    \\  /    A nd           | Version:  dev
     \\/     M anipulation  |
\*---------------------------------------------------------------------------*/
FoamFile
{
    format      ascii;
    class       volScalarField;
    object      p_rgh;
}
// * * * * * * * * * * * * * * * * * * * * * * * * * * * * * * * * * * * * * //

#include "$FOAM_CASE/constant/initialConditions"

dimensions      [1 -1 -2 0 0 0 0];

internalField   uniform 0;

boundaryField
{
    water_to_solid
    {
        type            fixedFluxPressure;
        value           $internalField;
    }

    water_to_air
    {
        type            fixedFluxPressure;
        value           $internalField;
    }
    #includeEtc "caseDicts/setConstraintTypes"
}


// ************************************************************************* //
