/*--------------------------------*- C++ -*----------------------------------*\
  =========                 |
  \\      /  F ield         | OpenFOAM: The Open Source CFD Toolbox
   \\    /   O peration     | Website:  https://openfoam.org
    \\  /    A nd           | Version:  dev
     \\/     M anipulation  |
\*---------------------------------------------------------------------------*/
FoamFile
{
    format      ascii;
    class       polyBoundaryMesh;
    location    "constant/air/polyMesh";
    object      boundary;
}
// * * * * * * * * * * * * * * * * * * * * * * * * * * * * * * * * * * * * * //

11
(
    inlet
    {
        type            patch;
        nFaces          0;
        startFace       53278;
    }
    outlet
    {
        type            patch;
        nFaces          0;
        startFace       53278;
    }
    walls
    {
        type            wall;
        inGroups        List<word> 1(wall);
        nFaces          182;
        startFace       53278;
    }
    air_to_water
    {
        type            mappedWall;
        inGroups        List<word> 
2
(
wall
mapped
)
;
        nFaces          815;
        startFace       53460;
        neighbourRegion water;
        neighbourPatch  water_to_air;
        transformType   none;
    }
    air_to_solid
    {
        type            mappedWall;
        inGroups        List<word> 
2
(
wall
mapped
)
;
        nFaces          5996;
        startFace       54275;
        neighbourRegion solid;
        neighbourPatch  solid_to_air;
        transformType   none;
    }
    procBoundary6to1
    {
        type            processor;
        inGroups        List<word> 1(processor);
        nFaces          14;
        startFace       60271;
        matchTolerance  0.0001;
        myProcNo        6;
        neighbProcNo    1;
    }
    procBoundary6to2
    {
        type            processor;
        inGroups        List<word> 1(processor);
        nFaces          714;
        startFace       60285;
        matchTolerance  0.0001;
        myProcNo        6;
        neighbProcNo    2;
    }
    procBoundary6to3
    {
        type            processor;
        inGroups        List<word> 1(processor);
        nFaces          73;
        startFace       60999;
        matchTolerance  0.0001;
        myProcNo        6;
        neighbProcNo    3;
    }
    procBoundary6to5
    {
        type            processor;
        inGroups        List<word> 1(processor);
        nFaces          85;
        startFace       61072;
        matchTolerance  0.0001;
        myProcNo        6;
        neighbProcNo    5;
    }
    procBoundary6to7
    {
        type            processor;
        inGroups        List<word> 1(processor);
        nFaces          500;
        startFace       61157;
        matchTolerance  0.0001;
        myProcNo        6;
        neighbProcNo    7;
    }
    procBoundary6to9
    {
        type            processor;
        inGroups        List<word> 1(processor);
        nFaces          385;
        startFace       61657;
        matchTolerance  0.0001;
        myProcNo        6;
        neighbProcNo    9;
    }
)

// ************************************************************************* //
