/*--------------------------------*- C++ -*----------------------------------*\
  =========                 |
  \\      /  F ield         | OpenFOAM: The Open Source CFD Toolbox
   \\    /   O peration     | Website:  https://openfoam.org
    \\  /    A nd           | Version:  dev
     \\/     M anipulation  |
\*---------------------------------------------------------------------------*/
FoamFile
{
    format      ascii;
    class       volScalarField;
    location    "0/water";
    object      T;
}
// * * * * * * * * * * * * * * * * * * * * * * * * * * * * * * * * * * * * * //

dimensions      [0 0 0 1 0 0 0];

internalField   uniform 298;

boundaryField
{
    water_to_air
    {
        type            coupledTemperature;
        value           uniform 298;
    }
    water_to_solid
    {
        type            coupledTemperature;
        value           uniform 298;
    }
    procBoundary4to0
    {
        type            processor;
        value           uniform 298;
    }
    procBoundary4to3
    {
        type            processor;
        value           uniform 298;
    }
    procBoundary4to5
    {
        type            processor;
        value           uniform 298;
    }
    procBoundary4to6
    {
        type            processor;
        value           uniform 298;
    }
    procBoundary4to8
    {
        type            processor;
        value           uniform 298;
    }
}


// ************************************************************************* //
