/*--------------------------------*- C++ -*----------------------------------*\
  =========                 |
  \\      /  F ield         | OpenFOAM: The Open Source CFD Toolbox
   \\    /   O peration     | Website:  https://openfoam.org
    \\  /    A nd           | Version:  dev
     \\/     M anipulation  |
\*---------------------------------------------------------------------------*/
FoamFile
{
    format      ascii;
    class       volScalarField;
    location    "0/water";
    object      p;
}
// * * * * * * * * * * * * * * * * * * * * * * * * * * * * * * * * * * * * * //

dimensions      [1 -1 -2 0 0 0 0];

internalField   uniform 100000;

boundaryField
{
    water_to_air
    {
        type            zeroGradient;
    }
    water_to_solid
    {
        type            zeroGradient;
    }
    procBoundary6to0
    {
        type            processor;
        value           uniform 100000;
    }
    procBoundary6to1
    {
        type            processor;
        value           uniform 100000;
    }
    procBoundary6to2
    {
        type            processor;
        value           uniform 100000;
    }
    procBoundary6to3
    {
        type            processor;
        value           uniform 100000;
    }
    procBoundary6to4
    {
        type            processor;
        value           uniform 100000;
    }
    procBoundary6to7
    {
        type            processor;
        value           uniform 100000;
    }
    procBoundary6to8
    {
        type            processor;
        value           uniform 100000;
    }
    procBoundary6to10
    {
        type            processor;
        value           uniform 100000;
    }
    procBoundary6to11
    {
        type            processor;
        value           uniform 100000;
    }
}


// ************************************************************************* //
