/*--------------------------------*- C++ -*----------------------------------*\
  =========                 |
  \\      /  F ield         | OpenFOAM: The Open Source CFD Toolbox
   \\    /   O peration     | Website:  https://openfoam.org
    \\  /    A nd           | Version:  12
     \\/     M anipulation  |
\*---------------------------------------------------------------------------*/
FoamFile
{
    format      ascii;
    class       polyBoundaryMesh;
    location    "constant/air1/polyMesh";
    object      boundary;
}
// * * * * * * * * * * * * * * * * * * * * * * * * * * * * * * * * * * * * * //

5
(
    inlet
    {
        type            patch;
        nFaces          758;
        startFace       454874;
    }
    outlet
    {
        type            patch;
        nFaces          2712;
        startFace       455632;
    }
    walls
    {
        type            wall;
        inGroups        List<word> 1(wall);
        nFaces          16852;
        startFace       458344;
    }
    air1_to_solid
    {
        type            mappedWall;
        inGroups        List<word> 1(wall);
        nFaces          39360;
        startFace       475196;
        neighbourRegion solid;
        neighbourPatch  solid_to_air1;
        transformType   none;
    }
    air1_to_lid
    {
        type            mappedWall;
        inGroups        List<word> 1(wall);
        nFaces          10748;
        startFace       514556;
        neighbourRegion lid;
        neighbourPatch  lid_to_air1;
        transformType   none;
    }
)

// ************************************************************************* //
