/*--------------------------------*- C++ -*----------------------------------*\
  =========                 |
  \\      /  F ield         | OpenFOAM: The Open Source CFD Toolbox
   \\    /   O peration     | Website:  https://openfoam.org
    \\  /    A nd           | Version:  dev
     \\/     M anipulation  |
\*---------------------------------------------------------------------------*/
FoamFile
{
    format      ascii;
    class       dictionary;
    location	"system";
    object      blockMeshDict;
}
// * * * * * * * * * * * * * * * * * * * * * * * * * * * * * * * * * * * * * //

bp   0.4;
bn  -0.4;

dp   12;
dn  -12;
dl  10;

nb  15;
nd  30;
nl  20;

gd   20;
gl   1;

convertToMeters 1;

vertices
(

    ($dn $dn $dn)
    ($dp $dn $dn)
    ($dp $dp $dn)
    ($dn $dp $dn)

    ($dn $dn $dp)
    ($dp $dn $dp)
    ($dp $dp $dp)
    ($dn $dp $dp)
);

blocks
(
    hex (0 1 2 3 4 5 6 7) ($nb $nd $nb) simpleGrading (1 1 1)
);

edges
(
   
);

faces
(
    
);

defaultPatch
    {
        name default; // optional
        type patch;
    }



boundary
(
    
);

// ************************************************************************* //
