/*--------------------------------*- C++ -*----------------------------------*\
  =========                 |
  \\      /  F ield         | OpenFOAM: The Open Source CFD Toolbox
   \\    /   O peration     | Website:  https://openfoam.org
    \\  /    A nd           | Version:  12
     \\/     M anipulation  |
\*---------------------------------------------------------------------------*/
FoamFile
{
    format      ascii;
    class       extendedFeatureEdgeMesh;
    location    "constant/extendedFeatureEdgeMesh";
    object      pot_roundfins.extendedFeatureEdgeMesh;
}
// * * * * * * * * * * * * * * * * * * * * * * * * * * * * * * * * * * * * * //

// points

7006
(
(-30.077568 17.127867 0.73777032)
(-30.085615 17.285955 0.71948749)
(-30.047199 17.047579 0.76735258)
(-30.012884 17.411928 0.71948749)
(-29.938059 17.284746 0.65413862)
(-29.871952 17.484005 0.73777032)
(-29.787237 17.497849 0.76735258)
(-30.617676 17.376944 1.4087573)
(-30.605724 17.50593 1.3213034)
(-30.613094 17.590496 1.3753529)
(-30.540363 17.716469 1.3753529)
(-30.463442 17.752371 1.3213034)
(-30.357714 17.827213 1.4087573)
(22.006229 -26.630434 0.76735258)
(22.22084 -26.481768 0.65413862)
(22.09057 -26.646399 0.73777032)
(22.247656 -26.626873 0.71948749)
(22.359085 -26.533371 0.71948749)
(22.405594 -26.382063 0.73777032)
(22.404516 -26.296232 0.76735258)
(22.429653 -27.13505 1.4087573)
(22.554604 -27.100882 1.3213034)
(22.639166 -27.093454 1.3753529)
(22.750595 -26.999954 1.3753529)
(22.772593 -26.917967 1.3213034)
(22.82794 -26.800848 1.4087573)
(29.938059 17.284746 0.65413862)
(29.787237 17.497849 0.76735258)
(29.871952 17.484005 0.73777032)
(30.047199 17.047579 0.76735258)
(30.077568 17.127867 0.73777032)
(30.085615 17.285955 0.71948749)
(30.012884 17.411928 0.71948749)
(30.463442 17.752371 1.3213034)
(30.357714 17.827213 1.4087573)
(30.617676 17.376944 1.4087573)
(30.605724 17.50593 1.3213034)
(30.613094 17.590496 1.3753529)
(30.540363 17.716469 1.3753529)
(11.823462 32.484695 0.65413862)
(12.059518 32.373173 0.76735258)
(12.031173 32.454193 0.73777032)
(11.570947 32.550995 0.76735258)
(11.644741 32.594845 0.73777032)
(11.799031 32.630222 0.71948749)
(11.93572 32.580471 0.71948749)
(11.796246 33.169998 1.4087573)
(11.925346 33.180626 1.3213034)
(12.007349 33.202572 1.3753529)
(12.144038 33.152821 1.3753529)
(12.284817 32.992172 1.4087573)
(12.192751 33.083302 1.3213034)
(13.904548 32.535965 30.515209)
(-34.044304 6.0029292 0.65413862)
(-34.183376 5.9535985 0.71948749)
(-34.158115 6.0968504 0.71948749)
(-34.065746 5.7427363 0.76735258)
(-34.121742 5.8077955 0.73777032)
(-34.747353 5.9824181 1.3213034)
(-34.783203 6.0593643 1.3753529)
(-34.757942 6.2026162 1.3753529)
(-34.71447 5.8571239 1.4087573)
(-34.050335 6.212781 0.73777032)
(-33.975464 6.2547646 0.76735258)
(-34.697941 6.2626605 1.3213034)
(-34.624184 6.3691521 1.4087573)
(-22.82794 26.800848 1.4087573)
(-22.772593 26.917967 1.3213034)
(-22.750595 26.999954 1.3753529)
(-22.639166 27.093454 1.3753529)
(-22.404516 26.296232 0.76735258)
(-22.22084 26.481768 0.65413862)
(-22.405594 26.382063 0.73777032)
(-22.359085 26.533371 0.71948749)
(-22.247656 26.626873 0.71948749)
(-22.09057 26.646399 0.73777032)
(-22.006229 26.630434 0.76735258)
(-22.554604 27.100882 1.3213034)
(-22.429653 27.13505 1.4087573)
(34.044304 6.0029292 0.65413862)
(34.065746 5.7427363 0.76735258)
(34.121742 5.8077955 0.73777032)
(34.183376 5.9535985 0.71948749)
(34.158115 6.0968504 0.71948749)
(34.747353 5.9824181 1.3213034)
(34.71447 5.8571239 1.4087573)
(34.783203 6.0593643 1.3753529)
(34.757942 6.2026162 1.3753529)
(33.975464 6.2547646 0.76735258)
(34.050335 6.212781 0.73777032)
(34.697941 6.2626605 1.3213034)
(34.624184 6.3691521 1.4087573)
(11.823462 -32.484695 0.65413862)
(11.570947 -32.550995 0.76735258)
(11.644741 -32.594845 0.73777032)
(11.799031 -32.630222 0.71948749)
(11.93572 -32.580471 0.71948749)
(12.031173 -32.454193 0.73777032)
(12.059518 -32.373173 0.76735258)
(11.796246 -33.169998 1.4087573)
(11.925346 -33.180626 1.3213034)
(12.007349 -33.202572 1.3753529)
(12.144038 -33.152821 1.3753529)
(12.192751 -33.083302 1.3213034)
(12.284817 -32.992172 1.4087573)
(33.975464 -6.2547646 0.76735258)
(34.050335 -6.212781 0.73777032)
(34.624184 -6.3691521 1.4087573)
(34.697941 -6.2626605 1.3213034)
(34.757942 -6.2026162 1.3753529)
(34.044304 -6.0029292 0.65413862)
(34.158115 -6.0968504 0.71948749)
(34.183376 -5.9535985 0.71948749)
(34.121742 -5.8077955 0.73777032)
(34.065746 -5.7427363 0.76735258)
(34.747353 -5.9824181 1.3213034)
(34.71447 -5.8571239 1.4087573)
(34.783203 -6.0593643 1.3753529)
(-12.031173 -32.454193 0.73777032)
(-11.93572 -32.580471 0.71948749)
(-11.823462 -32.484695 0.65413862)
(-11.799031 -32.630222 0.71948749)
(-11.644741 -32.594845 0.73777032)
(-11.570947 -32.550995 0.76735258)
(-12.059518 -32.373173 0.76735258)
(-12.284817 -32.992172 1.4087573)
(-12.192751 -33.083302 1.3213034)
(-12.144038 -33.152821 1.3753529)
(-12.007349 -33.202572 1.3753529)
(-11.925346 -33.180626 1.3213034)
(-11.796246 -33.169998 1.4087573)
(-13.904548 -32.535965 30.515209)
(22.404516 26.296232 0.76735258)
(22.006229 26.630434 0.76735258)
(22.22084 26.481768 0.65413862)
(22.09057 26.646399 0.73777032)
(22.247656 26.626873 0.71948749)
(22.405594 26.382063 0.73777032)
(22.359085 26.533371 0.71948749)
(22.429653 27.13505 1.4087573)
(22.554604 27.100882 1.3213034)
(22.750595 26.999954 1.3753529)
(22.82794 26.800848 1.4087573)
(22.772593 26.917967 1.3213034)
(22.639166 27.093454 1.3753529)
(-34.050335 -6.212781 0.73777032)
(-33.975464 -6.2547646 0.76735258)
(-34.757942 -6.2026162 1.3753529)
(-34.624184 -6.3691521 1.4087573)
(-34.697941 -6.2626605 1.3213034)
(-34.044304 -6.0029292 0.65413862)
(-34.158115 -6.0968504 0.71948749)
(-34.183376 -5.9535985 0.71948749)
(-34.121742 -5.8077955 0.73777032)
(-34.065746 -5.7427363 0.76735258)
(-34.747353 -5.9824181 1.3213034)
(-34.783203 -6.0593643 1.3753529)
(-34.71447 -5.8571239 1.4087573)
(0 -34.569492 0.65413862)
(-0.20561634 -34.61187 0.73777032)
(-0.25996351 -34.545429 0.76735258)
(-0.072730713 -34.697884 0.71948749)
(-0.14228275 -35.258301 1.3213034)
(-0.25996351 -35.204159 1.4087573)
(-0.072730713 -35.306965 1.3753529)
(-1.9067111 -35.329441 30.045189)
(0.072730713 -34.697884 0.71948749)
(0.20561634 -34.61187 0.73777032)
(0.25996351 -34.545429 0.76735258)
(0.14228275 -35.258301 1.3213034)
(0.072730713 -35.306965 1.3753529)
(0.25996351 -35.204159 1.4087573)
(1.89457 33.421257 23.069229)
(-12.059518 32.373173 0.76735258)
(-12.031173 32.454193 0.73777032)
(-11.823462 32.484695 0.65413862)
(-11.93572 32.580471 0.71948749)
(-11.799031 32.630222 0.71948749)
(-11.644741 32.594845 0.73777032)
(-11.570947 32.550995 0.76735258)
(-12.284817 32.992172 1.4087573)
(-12.192751 33.083302 1.3213034)
(-12.144038 33.152821 1.3753529)
(-12.007349 33.202572 1.3753529)
(-11.925346 33.180626 1.3213034)
(-11.796246 33.169998 1.4087573)
(-22.639166 -27.093454 1.3753529)
(-22.772593 -26.917967 1.3213034)
(-22.750595 -26.999954 1.3753529)
(-22.82794 -26.800848 1.4087573)
(-22.22084 -26.481768 0.65413862)
(-22.359085 -26.533371 0.71948749)
(-22.405594 -26.382063 0.73777032)
(-22.404516 -26.296232 0.76735258)
(-22.247656 -26.626873 0.71948749)
(-22.09057 -26.646399 0.73777032)
(-22.006229 -26.630434 0.76735258)
(-22.554604 -27.100882 1.3213034)
(-22.429653 -27.13505 1.4087573)
(35.129246 4.2262907 30.515209)
(-35.129246 -4.2262907 30.515209)
(-2.3407221 30.049803 -0.16974166)
(-2.3407221 32.649437 -2.7693768)
(-2.3407221 32.649437 2.4298935)
(-2.3407221 35.249073 -0.16974166)
(2.3407221 30.049803 -0.16974166)
(2.3407221 32.649437 -2.7693768)
(2.3407221 32.649437 2.4298935)
(2.3407221 35.249073 -0.16974166)
(-30.615965 -18.924355 -0.16974166)
(-30.615965 -16.324718 -2.7693768)
(-30.615965 -16.324718 2.4298935)
(-30.615965 -13.725084 -0.16974166)
(-25.934521 -18.924355 -0.16974166)
(-25.934521 -16.324718 -2.7693768)
(-25.934521 -16.324718 2.4298935)
(-25.934521 -13.725084 -0.16974166)
(25.934521 -18.924355 -0.16974166)
(25.934521 -16.324718 -2.7693768)
(25.934521 -16.324718 2.4298935)
(25.934521 -13.725084 -0.16974166)
(30.615965 -18.924355 -0.16974166)
(30.615965 -16.324718 -2.7693768)
(30.615965 -16.324718 2.4298935)
(30.615965 -13.725084 -0.16974166)
(-23.407221 0 9.9814997)
(23.407221 0 9.9814997)
(-30.058041 17.004202 0.82522416)
(-30.005054 17.023245 0.76223755)
(-30.026546 16.986019 0.82140201)
(-30.079496 16.982243 0.89755648)
(-30.088156 17.021589 0.83652359)
(-30.096445 16.992029 0.90885586)
(-30.061901 16.954527 0.96290535)
(-30.067635 16.957838 0.9667275)
(-30.110989 17.000425 0.92397743)
(-30.072554 16.960678 0.97184253)
(-30.060883 16.971497 0.89057302)
(-30.155699 17.11022 0.83968484)
(-30.139114 17.05101 0.87927365)
(-30.575529 17.35261 1.3244647)
(-30.151884 17.243904 0.7824741)
(-30.551485 17.554926 1.2521324)
(-30.131653 17.312536 0.76735258)
(-30.160019 17.175468 0.80694133)
(-30.579849 17.41786 1.2917212)
(-30.520039 17.620752 1.2470174)
(-30.100206 17.378363 0.76223755)
(-30.058922 17.438509 0.76735258)
(-30.121941 17.153486 0.76735258)
(-30.058781 17.190151 0.70436591)
(-30.108887 17.21908 0.73777032)
(-30.124205 17.092037 0.80694133)
(-30.087503 17.070848 0.7824741)
(-30.115582 17.037424 0.85480642)
(-30.053141 17.351189 0.71330309)
(-30.028837 17.099731 0.71948749)
(-30.003754 17.158382 0.68372089)
(-29.946213 17.12516 0.67673743)
(-29.97788 17.070312 0.71330309)
(-29.973047 17.220964 0.66161585)
(-29.911438 17.185394 0.65413862)
(-30.031965 17.25498 0.68372089)
(-29.998293 17.319523 0.67673743)
(-29.959234 17.380955 0.68372089)
(-29.900316 17.346937 0.66161585)
(-29.966604 17.465521 0.73777032)
(-29.916498 17.436592 0.70436591)
(-30.009602 17.490345 0.7824741)
(-29.954401 17.531607 0.80694133)
(-29.916325 17.509623 0.76735258)
(-30.478754 17.680899 1.2521324)
(-30.374233 17.773996 1.2917212)
(-29.895735 17.56049 0.83968484)
(-30.315567 17.802881 1.3244647)
(-29.836164 17.575733 0.87927365)
(-29.875072 17.248381 0.64649433)
(-29.838707 17.311367 0.65413862)
(-29.861471 17.404823 0.68372089)
(-29.80393 17.371601 0.67673743)
(-29.823221 17.45587 0.71948749)
(-29.772264 17.426449 0.71330309)
(-29.827541 17.521118 0.7824741)
(-29.864241 17.542309 0.80694133)
(-29.812632 17.562147 0.85480642)
(-29.785208 17.546312 0.83652359)
(-29.74509 17.473516 0.76223755)
(-29.755091 17.528925 0.82522416)
(-29.723597 17.510742 0.82140201)
(-29.746801 17.558487 0.89755648)
(-29.778296 17.57667 0.92397743)
(-29.728189 17.547739 0.89057302)
(-29.763752 17.568272 0.90885586)
(-29.714003 17.557106 0.96290535)
(-29.719736 17.560417 0.9667275)
(-29.724655 17.563257 0.97184253)
(-30.600439 17.366991 1.3640535)
(-30.577559 17.304146 1.3936357)
(-30.558945 17.2934 1.3640535)
(-30.590439 17.311583 1.4270401)
(-30.626488 17.38203 1.4566224)
(-30.530821 17.242815 1.4087573)
(-30.542324 17.249456 1.4270401)
(-30.496277 17.205315 1.4628067)
(-30.550285 17.254053 1.4476851)
(-30.609966 17.435247 1.3395863)
(-30.571716 17.486294 1.267254)
(-30.587896 17.575949 1.310004)
(-30.629257 17.519516 1.3823363)
(-30.630808 17.447279 1.3936357)
(-30.64146 17.45343 1.4515073)
(-30.641287 17.526461 1.4476851)
(-30.625975 17.597933 1.445323)
(-30.583025 17.657118 1.3729906)
(-30.557264 17.642244 1.3061819)
(-30.515167 17.701921 1.310004)
(-30.596193 17.664721 1.4445239)
(-30.553244 17.723906 1.445323)
(-30.486975 17.765957 1.3823363)
(-30.499004 17.772902 1.4476851)
(-30.554354 17.256403 1.4697901)
(-30.597023 17.315384 1.4628067)
(-30.492386 17.203068 1.4566224)
(-30.49897 17.206869 1.4697901)
(-30.429434 17.732735 1.267254)
(-30.40435 17.791386 1.3395863)
(-30.42519 17.803417 1.3936357)
(-30.255997 17.818123 1.3640535)
(-30.198128 17.819059 1.4087573)
(-30.144487 17.805647 1.4566224)
(-30.340475 17.817263 1.3640535)
(-30.435844 17.809568 1.4515073)
(-30.366524 17.8323 1.4566224)
(-30.274611 17.828869 1.3936357)
(-30.287489 17.836306 1.4270401)
(-30.209631 17.825701 1.4270401)
(-30.21759 17.830296 1.4476851)
(-30.148378 17.807894 1.4628067)
(-30.294073 17.840107 1.4628067)
(-30.221661 17.832645 1.4697901)
(-30.151072 17.809448 1.4697901)
(-27.534822 17.991426 21.275301)
(-10.404052 3.7867651 0.97184253)
(-15.273101 6.8000226 4.0696959)
(-16.415585 7.5169449 4.6731176)
(-21.626558 10.651621 9.1149549)
(-10.400831 3.785593 0.96290535)
(-10.343115 3.764586 0.89057302)
(-10.348742 3.766634 0.89755648)
(-10.402565 3.7862239 0.9667275)
(-10.051632 3.6584949 0.76223755)
(-10.220428 3.7199316 0.82140201)
(-10.229948 3.7233965 0.82522416)
(-9.8382215 3.5808196 0.71330309)
(-9.3164053 3.3908942 0.65413862)
(-9.5895224 3.4903009 0.67673743)
(-8.331769 6.9911842 0.82140201)
(-8.33953 6.9976964 0.82522416)
(-8.4317846 7.0751076 0.89057302)
(-8.4363718 7.0789561 0.89755648)
(-8.4814606 7.1167908 0.97184253)
(-8.4802485 7.1157732 0.9667275)
(-7.5948033 6.3727965 0.65413862)
(-7.8174505 6.5596199 0.67673743)
(-8.1941652 6.8757215 0.76223755)
(-26.001242 13.132157 14.730829)
(-24.373404 15.951658 14.730829)
(-20.037853 13.403338 9.1149549)
(-14.717658 10.457841 4.6731176)
(-14.366674 10.272074 4.4954576)
(-13.525542 9.8268814 4.0696959)
(-31.37656 15.671635 27.981831)
(-31.380709 15.673435 27.995735)
(-31.442558 15.70859 28.215891)
(-31.446375 15.711376 28.230433)
(-29.329639 19.377672 28.230433)
(-29.266552 19.34148 28.005358)
(-29.260313 19.33708 27.981831)
(-29.263947 19.339773 27.995735)
(-29.325317 19.375759 28.215891)
(-31.542732 15.795048 28.943966)
(-31.49613 15.758083 28.436049)
(-31.584946 15.891996 29.757446)
(-31.57688 15.950917 29.97246)
(-29.450279 19.419283 28.943966)
(-29.404522 19.39785 28.462343)
(-29.503908 19.423725 29.409546)
(-29.602339 19.37092 29.97246)
(-29.555346 19.407368 29.757446)
(-28.481226 14.405034 19.579712)
(-29.348444 14.850142 21.275301)
(-31.02562 15.529486 26.821352)
(-28.820284 18.993916 26.271553)
(-31.379326 15.672835 27.9911)
(-31.390873 15.679057 28.031673)
(-31.501291 15.766138 28.462343)
(-31.571692 15.836815 29.38368)
(-31.573395 15.839272 29.409546)
(-31.563213 15.982189 30.008823)
(-31.549549 16.01346 30.045189)
(-29.260717 19.337379 27.983376)
(-29.266031 19.341139 28.003433)
(-29.290058 19.355192 28.089571)
(-29.642838 19.315981 30.045189)
(-29.477095 19.421505 29.176756)
(-9.0308056 3.2869446 0.64649433)
(-9.5552874 7.7300119 2.120692)
(-8.6296663 7.2411494 1.6663032)
(-6.1088133 2.7198188 0.64649433)
(-7.3619804 6.1774349 0.64649433)
(-8.4788351 7.1145878 0.96290535)
(-8.0201912 6.7297397 0.71330309)
(-10.585853 3.8529353 1.6663032)
(-6.4797335 1.5782428 0.64649433)
(-5.4098387 3.9304779 0.64649433)
(-4.6066651 4.8224926 0.64649433)
(2.6656451 -6.0928345 0.64649433)
(3.3434641 -5.79105 0.64649433)
(4.8051915 -8.3228359 0.64649433)
(4.4744287 -4.9693561 0.64649433)
(5.4098387 -3.9304779 0.64649433)
(7.3619804 -6.1774349 0.64649433)
(5.5459051 -3.6948037 0.64649433)
(22.174091 -26.426052 0.64649433)
(4.9571557 -8.5860453 0.65413862)
(22.118376 -26.472803 0.65413862)
(5.1024785 -8.8377514 0.67673743)
(5.348362 -9.2636347 0.76223755)
(21.942019 -26.620785 0.82140201)
(5.4381762 -9.4191971 0.82140201)
(5.4432416 -9.4279709 0.82522416)
(5.5034566 -9.5322666 0.89057302)
(21.965393 -26.648642 0.82522416)
(5.535089 -9.5870552 0.9667275)
(21.9214 -26.666142 0.9667275)
(5.5358801 -9.5884256 0.97184253)
(5.5341668 -9.5854578 0.96290535)
(21.917145 -26.66107 0.96290535)
(5.5064507 -9.5374517 0.89755648)
(21.93368 -26.657122 0.89057302)
(5.2348084 -9.0669537 0.71330309)
(22.016581 -26.55822 0.71330309)
(21.925051 -26.670494 0.97184253)
(5.6287098 -9.7492113 1.638271)
(10.201112 -14.806516 4.6731176)
(7.5948033 -6.3727965 0.65413862)
(8.0201912 -6.7297397 0.71330309)
(22.283087 -26.334595 0.67673743)
(7.8174505 -6.5596199 0.67673743)
(8.1941652 -6.8757215 0.76223755)
(22.331602 -26.293884 0.71330309)
(8.331769 -6.9911842 0.82140201)
(22.406164 -26.231321 0.82140201)
(22.229805 -26.379303 0.65413862)
(8.33953 -6.9976964 0.82522416)
(8.4317846 -7.0751076 0.89057302)
(22.429539 -26.259178 0.82522416)
(8.4363718 -7.0789561 0.89755648)
(22.443396 -26.229418 0.89057302)
(8.4788351 -7.1145878 0.96290535)
(22.457211 -26.245882 0.89755648)
(8.4814606 -7.1167908 0.97184253)
(22.454412 -26.218891 0.9667275)
(8.4802485 -7.1157732 0.9667275)
(22.450157 -26.21382 0.96290535)
(8.6296663 -7.2411494 1.6663032)
(22.458063 -26.223244 0.97184253)
(21.947495 -26.673586 0.89755648)
(21.974947 -26.593153 0.76223755)
(22.065096 -26.517509 0.67673743)
(22.373234 -26.258951 0.76223755)
(12.817636 -12.627469 4.6731176)
(12.09373 -16.980698 6.7708058)
(16.687088 -17.416685 9.1149549)
(22.769674 -26.594606 1.4566224)
(15.537551 -21.018772 11.440352)
(14.208715 -19.41033 9.1149549)
(21.987747 -26.675282 0.83652359)
(22.036144 -26.666086 0.7824741)
(22.008102 -26.699539 0.85480642)
(21.960073 -26.688578 0.90885586)
(21.970869 -26.701443 0.92397743)
(22.02557 -26.720356 0.87927365)
(22.054401 -26.603294 0.71948749)
(22.164104 -26.5273 0.66161585)
(22.275536 -26.4338 0.66161585)
(22.123505 -26.68565 0.76735258)
(22.063385 -26.698549 0.80694133)
(22.08676 -26.726406 0.83968484)
(22.185837 -26.661404 0.73777032)
(22.151768 -26.71933 0.80694133)
(22.217751 -26.699436 0.7824741)
(22.281826 -26.667595 0.76735258)
(22.463379 -27.090694 1.2917212)
(22.398371 -27.097771 1.3244647)
(22.148647 -26.617083 0.70436591)
(22.107805 -26.568409 0.68372089)
(22.207834 -26.579416 0.68372089)
(22.265549 -26.535048 0.67673743)
(22.306259 -26.583563 0.71330309)
(22.341192 -26.625196 0.76223755)
(22.319265 -26.485916 0.68372089)
(22.325794 -26.385492 0.68372089)
(22.593435 -27.038958 1.2521324)
(22.652803 -26.996559 1.2470174)
(22.393255 -26.574095 0.76735258)
(22.704866 -26.945457 1.2521324)
(22.435741 -26.516521 0.7824741)
(22.403828 -26.478489 0.73777032)
(22.466789 -26.454996 0.80694133)
(22.366636 -26.434166 0.70436591)
(22.369425 -26.338959 0.71948749)
(22.438528 -26.421314 0.76735258)
(22.434431 -26.331882 0.7824741)
(22.461672 -26.364347 0.80694133)
(22.451893 -26.285818 0.83652359)
(22.485046 -26.392204 0.83968484)
(22.472248 -26.310076 0.85480642)
(22.489714 -26.330893 0.87927365)
(22.7784 -26.826359 1.2917212)
(22.796658 -26.763567 1.3244647)
(22.469791 -26.260874 0.90885586)
(22.480587 -26.273739 0.92397743)
(22.291018 -27.082981 1.4270401)
(22.28248 -27.072805 1.4087573)
(22.337179 -27.091719 1.3640535)
(22.23955 -27.0453 1.4628067)
(22.416859 -27.119804 1.3640535)
(22.350994 -27.108183 1.3936357)
(22.360556 -27.119577 1.4270401)
(22.296926 -27.090023 1.4476851)
(22.5012 -27.135769 1.3936357)
(22.436192 -27.142843 1.4566224)
(22.485731 -27.117334 1.3395863)
(22.529362 -27.070799 1.267254)
(22.620462 -27.071167 1.310004)
(22.572069 -27.121698 1.3823363)
(22.509108 -27.145191 1.4515073)
(22.580997 -27.132338 1.4476851)
(22.241549 -27.04768 1.4697901)
(22.299948 -27.093622 1.4697901)
(22.365442 -27.125401 1.4628067)
(22.236662 -27.041857 1.4566224)
(22.801325 -26.702255 1.3640535)
(22.699553 -27.052275 1.3729906)
(22.648726 -27.104849 1.445323)
(22.709326 -27.063921 1.4445239)
(22.747351 -26.887884 1.267254)
(22.680433 -27.029488 1.3061819)
(22.731894 -26.977667 1.310004)
(22.760155 -27.011347 1.445323)
(22.79006 -26.938784 1.3823363)
(22.800755 -26.852999 1.3395863)
(22.798988 -26.949423 1.4476851)
(22.816223 -26.871433 1.3936357)
(22.824129 -26.880856 1.4515073)
(22.815145 -26.785601 1.3640535)
(22.83448 -26.808641 1.4566224)
(22.824699 -26.730112 1.4270401)
(22.81514 -26.718719 1.3936357)
(22.800735 -26.655277 1.4270401)
(22.806644 -26.662319 1.4476851)
(22.792196 -26.645102 1.4087573)
(22.772562 -26.598049 1.4628067)
(22.829586 -26.735937 1.4628067)
(22.809664 -26.665918 1.4697901)
(22.774561 -26.60043 1.4697901)
(19.688337 -26.289997 21.275301)
(20.919907 -28.24548 28.411276)
(20.876387 -28.193188 28.201195)
(20.872032 -28.186916 28.177574)
(20.874523 -28.190693 28.191557)
(20.93329 -28.256153 28.462343)
(20.959711 -28.304949 28.988565)
(21.001652 -28.346567 29.54652)
(21.051407 -28.368345 29.994871)
(21.106806 -28.369333 30.314028)
(21.165422 -28.349487 30.490038)
(17.417875 -23.294744 14.730829)
(24.199013 -25.586851 28.277681)
(24.116793 -25.464239 27.834702)
(24.120081 -25.467346 27.848696)
(24.166075 -25.521622 28.06686)
(24.16869 -25.52556 28.08103)
(24.212738 -25.652145 28.444452)
(24.127884 -25.87361 29.221457)
(24.180058 -25.819906 29.24861)
(24.212017 -25.763752 29.116343)
(20.956041 -28.298172 28.91548)
(21.224697 -28.309673 30.515209)
(21.181381 -28.338768 30.496815)
(20.875454 -28.19194 28.196377)
(23.581182 -26.332348 28.462343)
(22.540005 -24.047743 21.275301)
(23.691128 -26.240093 28.462343)
(23.66176 -26.264734 28.445833)
(23.654419 -26.270895 28.441706)
(23.842632 -26.112965 28.72567)
(23.889034 -26.07403 28.806318)
(23.992874 -25.986897 28.986801)
(24.122213 -25.469616 27.858299)
(24.212259 -25.661318 28.462343)
(24.222361 -25.7076 28.830437)
(24.215549 -25.744577 29.018717)
(19.568068 -20.800795 14.034595)
(19.975788 -21.27972 14.730829)
(20.203888 -21.525949 15.312992)
(5.4098387 3.9304779 0.64649433)
(4.6066651 4.8224926 0.64649433)
(9.0308056 3.2869446 0.64649433)
(6.4797335 1.5782428 0.64649433)
(6.1088133 2.7198188 0.64649433)
(7.3619804 6.1774349 0.64649433)
(29.875072 17.248381 0.64649433)
(7.5948033 6.3727965 0.65413862)
(7.8174505 6.5596199 0.67673743)
(29.838707 17.311367 0.65413862)
(8.0201912 6.7297397 0.71330309)
(29.80393 17.371601 0.67673743)
(8.1941652 6.8757215 0.76223755)
(29.772264 17.426449 0.71330309)
(8.331769 6.9911842 0.82140201)
(29.74509 17.473516 0.76223755)
(8.33953 6.9976964 0.82522416)
(29.723597 17.510742 0.82140201)
(8.4317846 7.0751076 0.89057302)
(29.755091 17.528925 0.82522416)
(8.4363718 7.0789561 0.89755648)
(29.728189 17.547739 0.89057302)
(8.4788351 7.1145878 0.96290535)
(29.746801 17.558487 0.89755648)
(8.4802485 7.1157732 0.9667275)
(29.714003 17.557106 0.96290535)
(8.4814606 7.1167908 0.97184253)
(29.719736 17.560417 0.9667275)
(8.6296663 7.2411494 1.6663032)
(29.724655 17.563257 0.97184253)
(9.3164053 3.3908942 0.65413862)
(29.911438 17.185394 0.65413862)
(9.5895224 3.4903009 0.67673743)
(29.946213 17.12516 0.67673743)
(9.8382215 3.5808196 0.71330309)
(29.97788 17.070312 0.71330309)
(10.051632 3.6584949 0.76223755)
(30.005054 17.023245 0.76223755)
(10.220428 3.7199316 0.82140201)
(30.026546 16.986019 0.82140201)
(10.229948 3.7233965 0.82522416)
(30.058041 17.004202 0.82522416)
(10.343115 3.764586 0.89057302)
(10.348742 3.766634 0.89755648)
(30.060883 16.971497 0.89057302)
(30.061901 16.954527 0.96290535)
(10.400831 3.785593 0.96290535)
(10.402565 3.7862239 0.9667275)
(30.067635 16.957838 0.9667275)
(10.404052 3.7867651 0.97184253)
(30.072554 16.960678 0.97184253)
(10.585853 3.8529353 1.6663032)
(13.525542 9.8268814 4.0696959)
(15.273101 6.8000226 4.0696959)
(16.415585 7.5169449 4.6731176)
(21.626558 10.651621 9.1149549)
(30.079496 16.982243 0.89755648)
(30.144487 17.805647 1.4566224)
(14.717658 10.457841 4.6731176)
(20.037853 13.403338 9.1149549)
(26.001242 13.132157 14.730829)
(24.373404 15.951658 14.730829)
(30.088156 17.021589 0.83652359)
(30.096445 16.992029 0.90885586)
(30.110989 17.000425 0.92397743)
(29.973047 17.220964 0.66161585)
(29.900316 17.346937 0.66161585)
(29.861471 17.404823 0.68372089)
(29.959234 17.380955 0.68372089)
(29.823221 17.45587 0.71948749)
(29.827541 17.521118 0.7824741)
(29.785208 17.546312 0.83652359)
(29.916498 17.436592 0.70436591)
(29.916325 17.509623 0.76735258)
(29.966604 17.465521 0.73777032)
(29.812632 17.562147 0.85480642)
(29.864241 17.542309 0.80694133)
(29.836164 17.575733 0.87927365)
(29.954401 17.531607 0.80694133)
(29.895735 17.56049 0.83968484)
(29.763752 17.568272 0.90885586)
(29.778296 17.57667 0.92397743)
(30.028837 17.099731 0.71948749)
(30.003754 17.158382 0.68372089)
(30.087503 17.070848 0.7824741)
(30.058781 17.190151 0.70436591)
(30.031965 17.25498 0.68372089)
(29.998293 17.319523 0.67673743)
(30.053141 17.351189 0.71330309)
(30.108887 17.21908 0.73777032)
(30.058922 17.438509 0.76735258)
(30.100206 17.378363 0.76223755)
(30.121941 17.153486 0.76735258)
(30.115582 17.037424 0.85480642)
(30.124205 17.092037 0.80694133)
(30.139114 17.05101 0.87927365)
(30.155699 17.11022 0.83968484)
(30.160019 17.175468 0.80694133)
(30.131653 17.312536 0.76735258)
(30.151884 17.243904 0.7824741)
(30.009602 17.490345 0.7824741)
(30.315567 17.802881 1.3244647)
(30.478754 17.680899 1.2521324)
(30.374233 17.773996 1.2917212)
(30.575529 17.35261 1.3244647)
(30.551485 17.554926 1.2521324)
(30.579849 17.41786 1.2917212)
(30.520039 17.620752 1.2470174)
(30.255997 17.818123 1.3640535)
(30.198128 17.819059 1.4087573)
(30.492386 17.203068 1.4566224)
(30.558945 17.2934 1.3640535)
(30.530821 17.242815 1.4087573)
(30.571716 17.486294 1.267254)
(30.429434 17.732735 1.267254)
(30.40435 17.791386 1.3395863)
(30.515167 17.701921 1.310004)
(30.486975 17.765957 1.3823363)
(30.42519 17.803417 1.3936357)
(30.499004 17.772902 1.4476851)
(30.148378 17.807894 1.4628067)
(30.209631 17.825701 1.4270401)
(30.340475 17.817263 1.3640535)
(30.274611 17.828869 1.3936357)
(30.287489 17.836306 1.4270401)
(30.21759 17.830296 1.4476851)
(30.366524 17.8323 1.4566224)
(30.435844 17.809568 1.4515073)
(30.151072 17.809448 1.4697901)
(30.221661 17.832645 1.4697901)
(30.294073 17.840107 1.4628067)
(30.600439 17.366991 1.3640535)
(30.542324 17.249456 1.4270401)
(30.496277 17.205315 1.4628067)
(30.577559 17.304146 1.3936357)
(30.590439 17.311583 1.4270401)
(30.550285 17.254053 1.4476851)
(30.626488 17.38203 1.4566224)
(30.609966 17.435247 1.3395863)
(30.587896 17.575949 1.310004)
(30.629257 17.519516 1.3823363)
(30.630808 17.447279 1.3936357)
(30.64146 17.45343 1.4515073)
(30.641287 17.526461 1.4476851)
(30.625975 17.597933 1.445323)
(30.557264 17.642244 1.3061819)
(30.583025 17.657118 1.3729906)
(30.553244 17.723906 1.445323)
(30.596193 17.664721 1.4445239)
(30.49897 17.206869 1.4697901)
(30.554354 17.256403 1.4697901)
(30.597023 17.315384 1.4628067)
(29.348444 14.850142 21.275301)
(26.291533 17.189247 18.701559)
(29.260313 19.33708 27.981831)
(29.263947 19.339773 27.995735)
(29.325317 19.375759 28.215891)
(29.329639 19.377672 28.230433)
(31.37656 15.671635 27.981831)
(31.380709 15.673435 27.995735)
(31.38349 15.674838 28.005358)
(31.442558 15.70859 28.215891)
(31.446375 15.711376 28.230433)
(29.394966 19.397408 28.436049)
(29.450279 19.419283 28.943966)
(29.555346 19.407368 29.757446)
(29.602339 19.37092 29.97246)
(31.501291 15.766138 28.462343)
(31.542732 15.795048 28.943966)
(31.573395 15.839272 29.409546)
(31.584946 15.891996 29.757446)
(31.57688 15.950917 29.97246)
(27.534822 17.991426 21.275301)
(31.378633 15.672535 27.988783)
(31.382099 15.674136 28.000546)
(31.422869 15.697339 28.145714)
(31.44383 15.709518 28.220739)
(29.642838 19.315981 30.045189)
(31.549549 16.01346 30.045189)
(29.266552 19.34148 28.005358)
(29.273897 19.345764 28.031673)
(29.404522 19.39785 28.462343)
(29.525192 19.416956 29.553505)
(31.557358 15.995591 30.02441)
(0.4268412 6.6502967 0.64649433)
(1.6688255 9.4643793 0.64649433)
(0.69897437 6.6502967 0.64649433)
(2.0663745 6.3596468 0.64649433)
(4.8051915 8.3228359 0.64649433)
(3.3434641 5.79105 0.64649433)
(3.9437268 5.3549337 0.64649433)
(11.798588 32.416351 0.64649433)
(1.7216021 9.7636909 0.65413862)
(1.7720722 10.049921 0.67673743)
(11.730243 32.441227 0.65413862)
(1.8180298 10.310559 0.71330309)
(11.664886 32.465015 0.67673743)
(1.8574666 10.534216 0.76223755)
(11.605371 32.486679 0.71330309)
(1.8886588 10.711116 0.82140201)
(11.554301 32.505264 0.76223755)
(1.8904179 10.721093 0.82522416)
(11.513908 32.519966 0.82140201)
(1.9113305 10.839693 0.89057302)
(11.526346 32.554138 0.82522416)
(1.9123702 10.845591 0.89755648)
(11.493644 32.551262 0.89057302)
(1.921996 10.900181 0.96290535)
(11.476756 32.549316 0.96290535)
(1.9223162 10.901998 0.9667275)
(1.9225911 10.903556 0.97184253)
(11.47902 32.555538 0.9667275)
(1.9561865 11.094085 1.6663032)
(11.480963 32.560875 0.97184253)
(4.9571557 8.5860453 0.65413862)
(11.866932 32.391476 0.65413862)
(5.1024785 8.8377514 0.67673743)
(11.932289 32.367687 0.67673743)
(5.2348084 9.0669537 0.71330309)
(11.991803 32.346027 0.71330309)
(5.348362 9.2636347 0.76223755)
(12.083266 32.312737 0.82140201)
(5.4381762 9.4191971 0.82140201)
(5.4432416 9.4279709 0.82522416)
(12.095704 32.346909 0.82522416)
(5.5034566 9.5322666 0.89057302)
(12.118904 32.323685 0.89057302)
(5.5064507 9.5374517 0.89755648)
(12.130592 32.31134 0.96290535)
(5.5341668 9.5854578 0.96290535)
(5.535089 9.5870552 0.9667275)
(12.132856 32.317562 0.9667275)
(5.5358801 9.5884256 0.97184253)
(12.134799 32.322899 0.97184253)
(5.6287098 9.7492113 1.638271)
(4.5268908 17.414133 4.6731176)
(7.7222629 16.23768 4.6731176)
(4.9712601 18.567932 5.565094)
(11.646768 33.016418 1.4566224)
(12.042873 32.327438 0.76223755)
(12.126256 32.34388 0.89755648)
(9.7054806 22.010273 9.1149549)
(11.500995 32.571457 0.89755648)
(6.7397475 23.159784 9.1149549)
(11.754575 32.50808 0.66161585)
(11.891264 32.458328 0.66161585)
(11.955014 32.430126 0.68372089)
(12.011929 32.401318 0.71948749)
(11.976746 32.48983 0.70436591)
(12.075436 32.416904 0.7824741)
(12.048697 32.502342 0.76735258)
(12.08993 32.456726 0.80694133)
(12.107598 32.379589 0.83652359)
(12.118429 32.409348 0.85480642)
(12.102367 32.490898 0.83968484)
(12.127723 32.434879 0.87927365)
(12.132949 32.36227 0.90885586)
(12.138693 32.378052 0.92397743)
(11.586864 32.59473 0.7824741)
(11.53824 32.586819 0.83652359)
(11.54907 32.616573 0.85480642)
(11.558365 32.642109 0.87927365)
(11.601358 32.634552 0.80694133)
(11.507689 32.589848 0.90885586)
(11.513433 32.605629 0.92397743)
(11.625496 32.541969 0.71948749)
(11.68761 32.527451 0.68372089)
(11.709342 32.587158 0.70436591)
(11.662265 32.642994 0.76735258)
(11.729131 32.641529 0.73777032)
(11.677303 32.684307 0.80694133)
(11.613796 32.668724 0.83968484)
(11.746111 32.688183 0.7824741)
(11.777843 32.572006 0.68372089)
(11.817213 32.680176 0.76735258)
(11.847251 32.550053 0.67673743)
(11.868913 32.60957 0.71330309)
(11.8875 32.660637 0.76223755)
(11.7796 33.124268 1.3244647)
(11.983017 33.135719 1.2521324)
(11.843107 33.139854 1.2917212)
(11.914532 32.522259 0.68372089)
(11.953901 32.630424 0.76735258)