/*--------------------------------*- C++ -*----------------------------------*\
  =========                 |
  \\      /  F ield         | OpenFOAM: The Open Source CFD Toolbox
   \\    /   O peration     | Website:  https://openfoam.org
    \\  /    A nd           | Version:  dev
     \\/     M anipulation  |
\*---------------------------------------------------------------------------*/
FoamFile
{
    format      ascii;
    class       featureEdgeMesh;
    location    "constant/geometry";
    object      air_fire.eMesh;
}
// * * * * * * * * * * * * * * * * * * * * * * * * * * * * * * * * * * * * * //


// points:

208
(
(50 50 50)
(-50 50 50)
(-50 -50 50)
(50 -50 50)
(-50 50 -50)
(-50 -50 -50)
(50 -50 -50)
(50 50 -50)
(-9.9802675 0.62790519 -55)
(-10 -1.7763568e-15 -55)
(-9.9211473 1.2533324 -55)
(-9.8228722 1.8738132 -55)
(-9.685832 2.4868989 -55)
(-9.5105648 3.0901699 -55)
(-9.2977648 3.6812456 -55)
(-9.0482702 4.2577929 -55)
(-8.7630672 4.8175368 -55)
(-8.4432793 5.3582678 -55)
(-8.0901699 5.8778524 -55)
(-7.7051325 6.3742399 -55)
(-7.2896862 6.8454709 -55)
(-6.8454709 7.2896862 -55)
(-6.3742399 7.7051325 -55)
(-5.8778524 8.0901699 -55)
(-5.3582678 8.4432793 -55)
(-4.8175368 8.7630672 -55)
(-4.2577929 9.0482702 -55)
(-3.6812456 9.2977648 -55)
(-3.0901699 9.5105648 -55)
(-2.4868989 9.685832 -55)
(-1.8738132 9.8228722 -55)
(-1.2533324 9.9211473 -55)
(-0.62790519 9.9802675 -55)
(5.3290705e-15 10 -55)
(0.62790519 9.9802675 -55)
(1.2533324 9.9211473 -55)
(1.8738132 9.8228722 -55)
(2.4868989 9.685832 -55)
(3.0901699 9.5105648 -55)
(3.6812456 9.2977648 -55)
(4.2577929 9.0482702 -55)
(4.8175368 8.7630672 -55)
(5.3582678 8.4432793 -55)
(5.8778524 8.0901699 -55)
(6.3742399 7.7051325 -55)
(6.8454709 7.2896862 -55)
(7.2896862 6.8454709 -55)
(7.7051325 6.3742399 -55)
(8.0901699 5.8778524 -55)
(8.4432793 5.3582678 -55)
(8.7630672 4.8175368 -55)
(9.0482702 4.2577929 -55)
(9.2977648 3.6812456 -55)
(9.5105648 3.0901699 -55)
(9.685832 2.4868989 -55)
(9.8228722 1.8738132 -55)
(9.9211473 1.2533324 -55)
(9.9802675 0.62790519 -55)
(10 -2.4868996e-14 -55)
(9.9802675 -0.62790519 -55)
(9.9211473 -1.2533324 -55)
(9.8228722 -1.8738132 -55)
(9.685832 -2.4868989 -55)
(9.5105648 -3.0901699 -55)
(9.2977648 -3.6812456 -55)
(9.0482702 -4.2577929 -55)
(8.7630672 -4.8175368 -55)
(8.4432793 -5.3582678 -55)
(8.0901699 -5.8778524 -55)
(7.7051325 -6.3742399 -55)
(7.2896862 -6.8454709 -55)
(6.8454709 -7.2896862 -55)
(6.3742399 -7.7051325 -55)
(5.8778524 -8.0901699 -55)
(5.3582678 -8.4432793 -55)
(4.8175368 -8.7630672 -55)
(4.2577929 -9.0482702 -55)
(3.6812456 -9.2977648 -55)
(3.0901699 -9.5105648 -55)
(2.4868989 -9.685832 -55)
(1.8738132 -9.8228722 -55)
(1.2533324 -9.9211473 -55)
(0.62790519 -9.9802675 -55)
(1.7763568e-15 -10 -55)
(-0.62790519 -9.9802675 -55)
(-1.2533324 -9.9211473 -55)
(-1.8738132 -9.8228722 -55)
(-2.4868989 -9.685832 -55)
(-3.0901699 -9.5105648 -55)
(-3.6812456 -9.2977648 -55)
(-4.2577929 -9.0482702 -55)
(-4.8175368 -8.7630672 -55)
(-5.3582678 -8.4432793 -55)
(-5.8778524 -8.0901699 -55)
(-6.3742399 -7.7051325 -55)
(-6.8454709 -7.2896862 -55)
(-7.2896862 -6.8454709 -55)
(-7.7051325 -6.3742399 -55)
(-8.0901699 -5.8778524 -55)
(-8.4432793 -5.3582678 -55)
(-8.7630672 -4.8175368 -55)
(-9.0482702 -4.2577929 -55)
(-9.2977648 -3.6812456 -55)
(-9.5105648 -3.0901699 -55)
(-9.685832 -2.4868989 -55)
(-9.8228722 -1.8738132 -55)
(-9.9211473 -1.2533324 -55)
(-9.9802675 -0.62790519 -55)
(-10 0 -50)
(-9.9802675 0.62790519 -50)
(-9.9211473 1.2533324 -50)
(-9.8228722 1.8738132 -50)
(-9.685832 2.4868989 -50)
(-9.5105648 3.0901699 -50)
(-9.2977648 3.6812456 -50)
(-9.0482702 4.2577929 -50)
(-8.7630672 4.8175368 -50)
(-8.4432793 5.3582678 -50)
(-8.0901699 5.8778524 -50)
(-7.7051325 6.3742399 -50)
(-7.2896862 6.8454709 -50)
(-6.8454709 7.2896862 -50)
(-6.3742399 7.7051325 -50)
(-5.8778524 8.0901699 -50)
(-5.3582678 8.4432793 -50)
(-4.8175368 8.7630672 -50)
(-4.2577929 9.0482702 -50)
(-3.6812456 9.2977648 -50)
(-3.0901699 9.5105648 -50)
(-2.4868989 9.685832 -50)
(-1.8738132 9.8228722 -50)
(-1.2533324 9.9211473 -50)
(-0.62790519 9.9802675 -50)
(7.1054274e-15 10 -50)
(0.62790519 9.9802675 -50)
(1.2533324 9.9211473 -50)
(1.8738132 9.8228722 -50)
(2.4868989 9.685832 -50)
(3.0901699 9.5105648 -50)
(3.6812456 9.2977648 -50)
(4.2577929 9.0482702 -50)
(4.8175368 8.7630672 -50)
(5.3582678 8.4432793 -50)
(5.8778524 8.0901699 -50)
(6.3742399 7.7051325 -50)
(6.8454709 7.2896862 -50)
(7.2896862 6.8454709 -50)
(7.7051325 6.3742399 -50)
(8.0901699 5.8778524 -50)
(8.4432793 5.3582678 -50)
(8.7630672 4.8175368 -50)
(9.0482702 4.2577929 -50)
(9.2977648 3.6812456 -50)
(9.5105648 3.0901699 -50)
(9.685832 2.4868989 -50)
(9.8228722 1.8738132 -50)
(9.9211473 1.2533324 -50)
(9.9802675 0.62790519 -50)
(10 -2.8421709e-14 -50)
(9.9802675 -0.62790519 -50)
(9.9211473 -1.2533324 -50)
(9.8228722 -1.8738132 -50)
(9.685832 -2.4868989 -50)
(9.5105648 -3.0901699 -50)
(9.2977648 -3.6812456 -50)
(9.0482702 -4.2577929 -50)
(8.7630672 -4.8175368 -50)
(8.4432793 -5.3582678 -50)
(8.0901699 -5.8778524 -50)
(7.7051325 -6.3742399 -50)
(7.2896862 -6.8454709 -50)
(6.8454709 -7.2896862 -50)
(6.3742399 -7.7051325 -50)
(5.8778524 -8.0901699 -50)
(5.3582678 -8.4432793 -50)
(4.8175368 -8.7630672 -50)
(4.2577929 -9.0482702 -50)
(3.6812456 -9.2977648 -50)
(3.0901699 -9.5105648 -50)
(2.4868989 -9.685832 -50)
(1.8738132 -9.8228722 -50)
(1.2533324 -9.9211473 -50)
(0.62790519 -9.9802675 -50)
(0 -10 -50)
(-0.62790519 -9.9802675 -50)
(-1.2533324 -9.9211473 -50)
(-1.8738132 -9.8228722 -50)
(-2.4868989 -9.685832 -50)
(-3.0901699 -9.5105648 -50)
(-3.6812456 -9.2977648 -50)
(-4.2577929 -9.0482702 -50)
(-4.8175368 -8.7630672 -50)
(-5.3582678 -8.4432793 -50)
(-5.8778524 -8.0901699 -50)
(-6.3742399 -7.7051325 -50)
(-6.8454709 -7.2896862 -50)
(-7.2896862 -6.8454709 -50)
(-7.7051325 -6.3742399 -50)
(-8.0901699 -5.8778524 -50)
(-8.4432793 -5.3582678 -50)
(-8.7630672 -4.8175368 -50)
(-9.0482702 -4.2577929 -50)
(-9.2977648 -3.6812456 -50)
(-9.5105648 -3.0901699 -50)
(-9.685832 -2.4868989 -50)
(-9.8228722 -1.8738132 -50)
(-9.9211473 -1.2533324 -50)
(-9.9802675 -0.62790519 -50)
)


// edges:

212
(
(8 9)
(10 8)
(11 10)
(12 11)
(13 12)
(14 13)
(15 14)
(16 15)
(17 16)
(18 17)
(19 18)
(20 19)
(21 20)
(22 21)
(23 22)
(24 23)
(25 24)
(26 25)
(27 26)
(28 27)
(29 28)
(30 29)
(31 30)
(32 31)
(33 32)
(34 33)
(35 34)
(36 35)
(37 36)
(38 37)
(39 38)
(40 39)
(41 40)
(42 41)
(43 42)
(44 43)
(45 44)
(46 45)
(47 46)
(48 47)
(49 48)
(50 49)
(51 50)
(52 51)
(53 52)
(54 53)
(55 54)
(56 55)
(57 56)
(58 57)
(59 58)
(60 59)
(61 60)
(62 61)
(63 62)
(64 63)
(65 64)
(66 65)
(67 66)
(68 67)
(69 68)
(70 69)
(71 70)
(72 71)
(73 72)
(74 73)
(75 74)
(76 75)
(77 76)
(78 77)
(79 78)
(80 79)
(81 80)
(82 81)
(83 82)
(84 83)
(85 84)
(86 85)
(87 86)
(88 87)
(89 88)
(90 89)
(91 90)
(92 91)
(93 92)
(94 93)
(95 94)
(96 95)
(97 96)
(98 97)
(99 98)
(100 99)
(101 100)
(102 101)
(103 102)
(104 103)
(105 104)
(106 105)
(107 106)
(9 107)
(1 2)
(0 1)
(2 3)
(3 0)
(5 2)
(4 5)
(1 4)
(5 6)
(6 3)
(7 4)
(0 7)
(7 6)
(108 109)
(109 110)
(110 111)
(111 112)
(112 113)
(113 114)
(114 115)
(115 116)
(116 117)
(117 118)
(118 119)
(119 120)
(120 121)
(121 122)
(122 123)
(123 124)
(124 125)
(125 126)
(126 127)
(127 128)
(128 129)
(129 130)
(130 131)
(131 132)
(132 133)
(133 134)
(134 135)
(135 136)
(136 137)
(137 138)
(138 139)
(139 140)
(140 141)
(141 142)
(142 143)
(143 144)
(144 145)
(145 146)
(146 147)
(147 148)
(148 149)
(149 150)
(150 151)
(151 152)
(152 153)
(153 154)
(154 155)
(155 156)
(156 157)
(157 158)
(158 159)
(159 160)
(160 161)
(161 162)
(162 163)
(163 164)
(164 165)
(165 166)
(166 167)
(167 168)
(168 169)
(169 170)
(170 171)
(171 172)
(172 173)
(173 174)
(174 175)
(175 176)
(176 177)
(177 178)
(178 179)
(179 180)
(180 181)
(181 182)
(182 183)
(183 184)
(184 185)
(185 186)
(186 187)
(187 188)
(188 189)
(189 190)
(190 191)
(191 192)
(192 193)
(193 194)
(194 195)
(195 196)
(196 197)
(197 198)
(198 199)
(199 200)
(200 201)
(201 202)
(202 203)
(203 204)
(204 205)
(205 206)
(206 207)
(207 108)
)

// * * * * * * * * * * * * * * * * * * * * * * * * * * * * * * * * * * * * * //


// ************************************************************************* //
