/*--------------------------------*- C++ -*----------------------------------*\
  =========                 |
  \\      /  F ield         | OpenFOAM: The Open Source CFD Toolbox
   \\    /   O peration     | Website:  https://openfoam.org
    \\  /    A nd           | Version:  dev
     \\/     M anipulation  |
\*---------------------------------------------------------------------------*/
FoamFile
{
    format      ascii;
    class       extendedFeatureEdgeMesh;
    location    "constant/extendedFeatureEdgeMesh";
    object      rectangularPot.extendedFeatureEdgeMesh;
}
// * * * * * * * * * * * * * * * * * * * * * * * * * * * * * * * * * * * * * //

// points

16
(
(33.483807 -33.483807 17.527546)
(33.483807 33.483807 -17.527546)
(33.483807 33.483807 17.527546)
(33.483807 -33.483807 -17.527546)
(-33.483807 33.483807 17.527546)
(-33.483807 -33.483807 17.527546)
(-33.483807 -33.483807 -17.527546)
(-33.483807 33.483807 -17.527546)
(31.912521 -31.912521 -12.81369)
(31.912521 31.912521 -12.81369)
(-31.912521 31.912521 -12.81369)
(-31.912521 -31.912521 -12.81369)
(31.912521 31.912521 17.527546)
(-31.912521 31.912521 17.527546)
(-31.912521 -31.912521 17.527546)
(31.912521 -31.912521 17.527546)
)

// edges

24
(
(2 0)
(1 2)
(3 1)
(0 3)
(13 12)
(14 13)
(2 4)
(12 15)
(15 14)
(5 0)
(4 5)
(3 6)
(6 7)
(7 1)
(4 7)
(6 5)
(9 8)
(12 9)
(8 15)
(9 10)
(10 11)
(11 8)
(10 13)
(14 11)
)

// concaveStart mixedStart nonFeatureStart
8 12 16
// internalStart flatStart openStart multipleStart
16 24 24 24
// normals

28
(
(1 -0 0)
(0 0 1)
(0 1 -0)
(1 0 0)
(0 0 -1)
(0 -1 -0)
(0 0 1)
(0 -1 0)
(0 0 1)
(1 -0 0)
(-0 0 1)
(-0 0 1)
(-1 -0 0)
(-0 0 1)
(0 1 -0)
(0 0 1)
(0 -1 0)
(0 0 1)
(-1 -0 0)
(-0 0 -1)
(-1 0 0)
(0 1 0)
(-1 0 0)
(-0 0 1)
(0 -1 -0)
(0 0 1)
(1 0 0)
(0 1 0)
)

// normal volume types

28
(
0
0
0
0
0
0
0
0
0
0
0
0
0
0
0
0
0
0
0
0
0
0
0
0
0
0
0
0
)

// normalDirections

24
(
2(1 -1)
2(1 -1)
2(1 -1)
2(1 -1)
2(1 -1)
2(1 -1)
2(1 -1)
2(1 -1)
2(1 -1)
2(1 -1)
2(1 -1)
2(1 -1)
2(1 -1)
2(1 -1)
2(1 -1)
2(1 -1)
2(1 -1)
2(1 -1)
2(1 -1)
2(1 -1)
2(1 -1)
2(1 -1)
2(1 -1)
2(1 -1)
)

// edgeNormals

24
(
2(0 1)
2(0 2)
2(3 4)
2(3 5)
2(6 7)
2(8 9)
2(10 2)
2(11 12)
2(13 14)
2(15 16)
2(17 18)
2(4 5)
2(19 20)
2(19 21)
2(20 21)
2(18 16)
2(22 23)
2(22 24)
2(12 14)
2(23 24)
2(25 26)
2(25 27)
2(9 7)
2(26 27)
)

// featurePointNormals

16
(
3(0 1 5)
3(0 2 4)
3(0 1 2)
3(3 4 5)
3(10 2 18)
3(15 16 18)
3(4 5 20)
3(19 20 21)
3(22 23 14)
3(22 23 24)
3(23 24 26)
3(25 26 27)
3(6 7 12)
3(6 7 9)
3(8 9 14)
3(11 12 14)
)

// featurePointEdges

16
(
3(3 9 0)
3(2 13 1)
3(0 6 1)
3(2 11 3)
3(6 14 10)
3(10 15 9)
3(12 15 11)
3(12 14 13)
3(18 21 16)
3(16 19 17)
3(20 22 19)
3(20 23 21)
3(4 17 7)
3(5 22 4)
3(8 23 5)
3(8 18 7)
)

// regionEdges
0()


// ************************************************************************* //
