/*--------------------------------*- C++ -*----------------------------------*\
  =========                 |
  \\      /  F ield         | OpenFOAM: The Open Source CFD Toolbox
   \\    /   O peration     | Website:  https://openfoam.org
    \\  /    A nd           | Version:  dev
     \\/     M anipulation  |
\*---------------------------------------------------------------------------*/
FoamFile
{
    format      ascii;
    class       volScalarField;
    location    "0/water";
    object      cellToRegion;
}
// * * * * * * * * * * * * * * * * * * * * * * * * * * * * * * * * * * * * * //

dimensions      [];

internalField   uniform 1;

boundaryField
{
    water_to_air
    {
        type            extrapolatedCalculated;
        value           uniform 1;
    }
    water_to_solid
    {
        type            extrapolatedCalculated;
        value           uniform 1;
    }
    procBoundary11to0
    {
        type            processor;
        value           uniform 1;
    }
    procBoundary11to6
    {
        type            processor;
        value           uniform 1;
    }
    procBoundary11to7
    {
        type            processor;
        value           uniform 1;
    }
    procBoundary11to9
    {
        type            processor;
        value           uniform 1;
    }
    procBoundary11to10
    {
        type            processor;
        value           uniform 1;
    }
}


// ************************************************************************* //
