/*--------------------------------*- C++ -*----------------------------------*\
  =========                 |
  \\      /  F ield         | OpenFOAM: The Open Source CFD Toolbox
   \\    /   O peration     | Website:  https://openfoam.org
    \\  /    A nd           | Version:  dev
     \\/     M anipulation  |
\*---------------------------------------------------------------------------*/
FoamFile
{
    format      ascii;
    class       volVectorField;
    location    "0/water";
    object      U;
}
// * * * * * * * * * * * * * * * * * * * * * * * * * * * * * * * * * * * * * //

dimensions      [0 1 -1 0 0 0 0];

internalField   uniform (0 0 0);

boundaryField
{
    water_to_air
    {
        type            noSlip;
    }
    water_to_solid
    {
        type            noSlip;
    }
    procBoundary11to0
    {
        type            processor;
        value           uniform (0 0 0);
    }
    procBoundary11to6
    {
        type            processor;
        value           uniform (0 0 0);
    }
    procBoundary11to7
    {
        type            processor;
        value           uniform (0 0 0);
    }
    procBoundary11to9
    {
        type            processor;
        value           uniform (0 0 0);
    }
    procBoundary11to10
    {
        type            processor;
        value           uniform (0 0 0);
    }
}


// ************************************************************************* //
