/*--------------------------------*- C++ -*----------------------------------*\
  =========                 |
  \\      /  F ield         | OpenFOAM: The Open Source CFD Toolbox
   \\    /   O peration     | Website:  https://openfoam.org
    \\  /    A nd           | Version:  12
     \\/     M anipulation  |
\*---------------------------------------------------------------------------*/
FoamFile
{
    format      ascii;
    class       polyBoundaryMesh;
    location    "constant/polyMesh";
    object      boundary;
}
// * * * * * * * * * * * * * * * * * * * * * * * * * * * * * * * * * * * * * //

3
(
    inlet
    {
        type            patch;
        nFaces          758;
        startFace       952656;
    }
    outlet
    {
        type            patch;
        nFaces          2712;
        startFace       953414;
    }
    walls
    {
        type            wall;
        inGroups        List<word> 1(wall);
        nFaces          16852;
        startFace       956126;
    }
)

// ************************************************************************* //
