/*--------------------------------*- C++ -*----------------------------------*\
  =========                 |
  \\      /  F ield         | OpenFOAM: The Open Source CFD Toolbox
   \\    /   O peration     | Website:  https://openfoam.org
    \\  /    A nd           | Version:  dev
     \\/     M anipulation  |
\*---------------------------------------------------------------------------*/
FoamFile
{
    format      ascii;
    class       polyBoundaryMesh;
    location    "constant/air/polyMesh";
    object      boundary;
}
// * * * * * * * * * * * * * * * * * * * * * * * * * * * * * * * * * * * * * //

16
(
    inlet
    {
        type            patch;
        nFaces          706;
        startFace       52547;
    }
    outlet
    {
        type            patch;
        nFaces          0;
        startFace       53253;
    }
    walls
    {
        type            wall;
        inGroups        List<word> 1(wall);
        nFaces          7830;
        startFace       53253;
    }
    air_to_water
    {
        type            mappedWall;
        inGroups        List<word> 
2
(
wall
mapped
)
;
        nFaces          0;
        startFace       61083;
        neighbourRegion water;
        neighbourPatch  water_to_air;
        transformType   none;
    }
    air_to_solid
    {
        type            mappedWall;
        inGroups        List<word> 
2
(
wall
mapped
)
;
        nFaces          0;
        startFace       61083;
        neighbourRegion solid;
        neighbourPatch  solid_to_air;
        transformType   none;
    }
    procBoundary3to0
    {
        type            processor;
        inGroups        List<word> 1(processor);
        nFaces          384;
        startFace       61083;
        matchTolerance  0.0001;
        myProcNo        3;
        neighbProcNo    0;
    }
    procBoundary3to1
    {
        type            processor;
        inGroups        List<word> 1(processor);
        nFaces          155;
        startFace       61467;
        matchTolerance  0.0001;
        myProcNo        3;
        neighbProcNo    1;
    }
    procBoundary3to2
    {
        type            processor;
        inGroups        List<word> 1(processor);
        nFaces          28;
        startFace       61622;
        matchTolerance  0.0001;
        myProcNo        3;
        neighbProcNo    2;
    }
    procBoundary3to4
    {
        type            processor;
        inGroups        List<word> 1(processor);
        nFaces          253;
        startFace       61650;
        matchTolerance  0.0001;
        myProcNo        3;
        neighbProcNo    4;
    }
    procBoundary3to5
    {
        type            processor;
        inGroups        List<word> 1(processor);
        nFaces          40;
        startFace       61903;
        matchTolerance  0.0001;
        myProcNo        3;
        neighbProcNo    5;
    }
    procBoundary3to6
    {
        type            processor;
        inGroups        List<word> 1(processor);
        nFaces          73;
        startFace       61943;
        matchTolerance  0.0001;
        myProcNo        3;
        neighbProcNo    6;
    }
    procBoundary3to7
    {
        type            processor;
        inGroups        List<word> 1(processor);
        nFaces          51;
        startFace       62016;
        matchTolerance  0.0001;
        myProcNo        3;
        neighbProcNo    7;
    }
    procBoundary3to8
    {
        type            processor;
        inGroups        List<word> 1(processor);
        nFaces          64;
        startFace       62067;
        matchTolerance  0.0001;
        myProcNo        3;
        neighbProcNo    8;
    }
    procBoundary3to9
    {
        type            processor;
        inGroups        List<word> 1(processor);
        nFaces          12;
        startFace       62131;
        matchTolerance  0.0001;
        myProcNo        3;
        neighbProcNo    9;
    }
    procBoundary3to10
    {
        type            processor;
        inGroups        List<word> 1(processor);
        nFaces          48;
        startFace       62143;
        matchTolerance  0.0001;
        myProcNo        3;
        neighbProcNo    10;
    }
    procBoundary3to11
    {
        type            processor;
        inGroups        List<word> 1(processor);
        nFaces          83;
        startFace       62191;
        matchTolerance  0.0001;
        myProcNo        3;
        neighbProcNo    11;
    }
)

// ************************************************************************* //
