/*--------------------------------*- C++ -*----------------------------------*\
  =========                 |
  \\      /  F ield         | OpenFOAM: The Open Source CFD Toolbox
   \\    /   O peration     | Website:  https://openfoam.org
    \\  /    A nd           | Version:  dev
     \\/     M anipulation  |
\*---------------------------------------------------------------------------*/
FoamFile
{
    format      ascii;
    class       polyBoundaryMesh;
    location    "constant/solid/polyMesh";
    object      boundary;
}
// * * * * * * * * * * * * * * * * * * * * * * * * * * * * * * * * * * * * * //

5
(
    solid_to_water
    {
        type            mappedWall;
        inGroups        List<word> 
2
(
wall
mapped
)
;
        nFaces          1831;
        startFace       27216;
        neighbourRegion water;
        neighbourPatch  water_to_solid;
        transformType   none;
    }
    solid_to_air
    {
        type            mappedWall;
        inGroups        List<word> 
2
(
wall
mapped
)
;
        nFaces          5351;
        startFace       29047;
        neighbourRegion air;
        neighbourPatch  air_to_solid;
        transformType   none;
    }
    procBoundary11to6
    {
        type            processor;
        inGroups        List<word> 1(processor);
        nFaces          138;
        startFace       34398;
        matchTolerance  0.0001;
        myProcNo        11;
        neighbProcNo    6;
    }
    procBoundary11to9
    {
        type            processor;
        inGroups        List<word> 1(processor);
        nFaces          132;
        startFace       34536;
        matchTolerance  0.0001;
        myProcNo        11;
        neighbProcNo    9;
    }
    procBoundary11to10
    {
        type            processor;
        inGroups        List<word> 1(processor);
        nFaces          270;
        startFace       34668;
        matchTolerance  0.0001;
        myProcNo        11;
        neighbProcNo    10;
    }
)

// ************************************************************************* //
