/*--------------------------------*- C++ -*----------------------------------*\
  =========                 |
  \\      /  F ield         | OpenFOAM: The Open Source CFD Toolbox
   \\    /   O peration     | Website:  https://openfoam.org
    \\  /    A nd           | Version:  dev
     \\/     M anipulation  |
\*---------------------------------------------------------------------------*/
FoamFile
{
    format      ascii;
    class       volScalarField;
    object      nut;
}
// * * * * * * * * * * * * * * * * * * * * * * * * * * * * * * * * * * * * * //

dimensions      [0 2 -1 0 0 0 0];

internalField   uniform 9.257e-05;//uniform 0;

boundaryField
{
    inlet
    {
        type            calculated;
        value           uniform 9.257e-05;//uniform 0;
    }

    outlet
    {
        type            calculated;
        value           uniform 9.257e-05;//uniform 0;
    }
    
    walls
    {
        type            nutkWallFunction;
        value           uniform 9.257e-05; //uniform 0;
    }

    air_to_solid
    {
        type            nutkWallFunction;
        value           uniform 9.257e-05;//uniform 0;
    }
    
    air_to_water
    {
        type            nutkWallFunction;
        value           uniform 0;
    }

    #includeEtc "caseDicts/setConstraintTypes"
}

// ************************************************************************* //
